<?xml version="1.0" encoding="UTF-8"?>

<!-- generated on 12/23/20 17:39:47 by Eclipse SUMO netedit Version 1.7.0
<configuration xmlns:xsi="http://www.w3.org/2001/XMLSchema-instance" xsi:noNamespaceSchemaLocation="http://sumo.dlr.de/xsd/netconvertConfiguration.xsd">

    <input>
        <sumo-net-file value="D:\Sumo\ntust\ntust.net.xml"/>
    </input>

    <output>
        <output-file value="D:\Sumo\ntust\ntust.net.xml"/>
    </output>

    <processing>
        <geometry.min-radius.fix.railways value="false"/>
        <geometry.max-grade.fix value="false"/>
        <offset.disable-normalization value="true"/>
        <lefthand value="false"/>
    </processing>

    <tls_building>
        <tls.green.time value="30"/>
        <tls.yellow.min-decel value="6"/>
        <tls.yellow.time value="6"/>
    </tls_building>

    <junctions>
        <no-turnarounds value="true"/>
        <junctions.corner-detail value="5"/>
        <junctions.limit-turn-speed value="5.5"/>
        <rectangular-lane-cut value="false"/>
    </junctions>

    <pedestrian>
        <walkingareas value="false"/>
    </pedestrian>

    <report>
        <aggregate-warnings value="5"/>
    </report>

</configuration>
-->

<net version="1.6" junctionCornerDetail="5" limitTurnSpeed="5.50" xmlns:xsi="http://www.w3.org/2001/XMLSchema-instance" xsi:noNamespaceSchemaLocation="http://sumo.dlr.de/xsd/net_file.xsd">

    <location netOffset="0.00,0.00" convBoundary="-129.02,-21.18,679.53,555.77" origBoundary="-10000000000.00,-10000000000.00,10000000000.00,10000000000.00" projParameter="!"/>

    <edge id=":gneJ0_0" function="internal">
        <lane id=":gneJ0_0_0" index="0" disallow="tram rail_urban rail rail_electric rail_fast ship" speed="6.52" length="9.04" shape="186.24,139.77 184.20,138.35 182.20,137.91 180.24,138.45 178.31,139.98"/>
    </edge>
    <edge id=":gneJ0_1" function="internal">
        <lane id=":gneJ0_1_0" index="0" disallow="tram rail_urban rail rail_electric rail_fast ship" speed="7.29" length="3.39" shape="186.24,139.77 184.82,137.69 184.77,136.83"/>
    </edge>
    <edge id=":gneJ0_4" function="internal">
        <lane id=":gneJ0_4_0" index="0" disallow="tram rail_urban rail rail_electric rail_fast ship" speed="7.29" length="8.32" shape="184.77,136.83 184.67,135.30 185.80,132.59 188.20,129.57"/>
    </edge>
    <edge id=":gneJ0_2" function="internal">
        <lane id=":gneJ0_2_0" index="0" disallow="tram rail_urban rail rail_electric rail_fast ship" speed="13.89" length="14.38" shape="175.98,137.78 185.89,127.36"/>
    </edge>
    <edge id=":gneJ0_3" function="internal">
        <lane id=":gneJ0_3_0" index="0" disallow="tram rail_urban rail rail_electric rail_fast ship" speed="8.01" length="14.18" shape="175.98,137.78 179.01,135.38 182.10,134.52 185.23,135.20 188.43,137.43"/>
    </edge>
    <edge id=":gneJ1_0" function="internal">
        <lane id=":gneJ1_0_0" index="0" disallow="tram rail_urban rail rail_electric rail_fast ship" speed="13.89" length="14.48" shape="274.31,47.19 262.58,38.69"/>
    </edge>
    <edge id=":gneJ1_1" function="internal">
        <lane id=":gneJ1_1_0" index="0" disallow="tram rail_urban rail rail_electric rail_fast ship" speed="13.89" length="14.53" shape="264.44,36.09 276.21,44.62"/>
    </edge>
    <edge id=":gneJ1_2" function="internal">
        <lane id=":gneJ1_2_0" index="0" disallow="tram rail_urban rail rail_electric rail_fast ship" speed="6.22" length="9.05" shape="263.30,46.32 264.77,44.25 265.14,42.30 264.41,40.44 262.58,38.69"/>
    </edge>
    <edge id=":gneJ1_3" function="internal">
        <lane id=":gneJ1_3_0" index="0" disallow="tram rail_urban rail rail_electric rail_fast ship" speed="7.85" length="12.29" shape="265.61,48.53 268.74,45.70 271.55,44.11 274.04,43.75 276.21,44.62"/>
    </edge>
    <edge id=":gneJ10_0" function="internal">
        <lane id=":gneJ10_0_0" index="0" disallow="tram rail_urban rail rail_electric rail_fast ship" speed="6.98" length="9.68" shape="227.17,177.99 225.11,176.58 222.98,176.15 220.77,176.69 218.49,178.20"/>
    </edge>
    <edge id=":gneJ10_1" function="internal">
        <lane id=":gneJ10_1_0" index="0" disallow="tram rail_urban rail rail_electric rail_fast ship" speed="13.89" length="14.54" shape="227.17,177.99 216.55,168.06"/>
    </edge>
    <edge id=":gneJ10_2" function="internal">
        <lane id=":gneJ10_2_0" index="0" disallow="tram rail_urban rail rail_electric rail_fast ship" speed="8.24" length="5.79" shape="227.17,177.99 224.82,175.02 224.28,173.09"/>
    </edge>
    <edge id=":gneJ10_12" function="internal">
        <lane id=":gneJ10_12_0" index="0" disallow="tram rail_urban rail rail_electric rail_fast ship" speed="8.24" length="8.50" shape="224.28,173.09 223.95,171.92 224.55,168.67 226.62,165.28"/>
    </edge>
    <edge id=":gneJ10_3" function="internal">
        <lane id=":gneJ10_3_0" index="0" disallow="tram rail_urban rail rail_electric rail_fast ship" speed="6.80" length="9.40" shape="229.11,167.29 227.72,169.55 227.30,171.69 227.85,173.73 229.36,175.66"/>
    </edge>
    <edge id=":gneJ10_4" function="internal">
        <lane id=":gneJ10_4_0" index="0" disallow="tram rail_urban rail rail_electric rail_fast ship" speed="13.89" length="15.24" shape="229.11,167.29 226.65,170.18 224.03,172.98 221.30,175.67 218.49,178.20"/>
    </edge>
    <edge id=":gneJ10_5" function="internal">
        <lane id=":gneJ10_5_0" index="0" disallow="tram rail_urban rail rail_electric rail_fast ship" speed="7.91" length="14.57" shape="229.11,167.29 226.16,170.00 223.09,171.03 219.88,170.38 216.55,168.06"/>
    </edge>
    <edge id=":gneJ10_6" function="internal">
        <lane id=":gneJ10_6_0" index="0" disallow="tram rail_urban rail rail_electric rail_fast ship" speed="6.40" length="9.15" shape="218.74,165.72 220.84,167.19 222.85,167.60 224.78,166.97 226.62,165.28"/>
    </edge>
    <edge id=":gneJ10_7" function="internal">
        <lane id=":gneJ10_7_0" index="0" disallow="tram rail_urban rail rail_electric rail_fast ship" speed="13.89" length="14.55" shape="218.74,165.72 229.36,175.66"/>
    </edge>
    <edge id=":gneJ10_8" function="internal">
        <lane id=":gneJ10_8_0" index="0" disallow="tram rail_urban rail rail_electric rail_fast ship" speed="7.82" length="5.98" shape="218.74,165.72 221.29,168.89 221.76,170.74"/>
    </edge>
    <edge id=":gneJ10_13" function="internal">
        <lane id=":gneJ10_13_0" index="0" disallow="tram rail_urban rail rail_electric rail_fast ship" speed="7.82" length="8.64" shape="221.76,170.74 222.09,172.03 221.16,175.13 218.49,178.20"/>
    </edge>
    <edge id=":gneJ10_9" function="internal">
        <lane id=":gneJ10_9_0" index="0" disallow="tram rail_urban rail rail_electric rail_fast ship" speed="6.28" length="9.04" shape="216.40,175.78 218.05,173.88 218.63,171.96 218.13,170.02 216.55,168.06"/>
    </edge>
    <edge id=":gneJ10_10" function="internal">
        <lane id=":gneJ10_10_0" index="0" disallow="tram rail_urban rail rail_electric rail_fast ship" speed="13.89" length="14.67" shape="216.40,175.78 219.15,173.31 221.75,170.76 224.23,168.10 226.62,165.28"/>
    </edge>
    <edge id=":gneJ10_11" function="internal">
        <lane id=":gneJ10_11_0" index="0" disallow="tram rail_urban rail rail_electric rail_fast ship" speed="8.40" length="14.46" shape="216.40,175.78 219.77,173.57 223.05,172.81 226.25,173.51 229.36,175.66"/>
    </edge>
    <edge id=":gneJ12_0" function="internal">
        <lane id=":gneJ12_0_0" index="0" disallow="tram rail_urban rail rail_electric rail_fast ship" speed="13.89" length="14.36" shape="386.55,314.80 378.25,326.52"/>
    </edge>
    <edge id=":gneJ12_1" function="internal">
        <lane id=":gneJ12_1_0" index="0" disallow="tram rail_urban rail rail_electric rail_fast ship" speed="7.79" length="5.88" shape="386.55,314.80 383.70,317.75 382.05,318.39"/>
    </edge>
    <edge id=":gneJ12_6" function="internal">
        <lane id=":gneJ12_6_0" index="0" disallow="tram rail_urban rail rail_electric rail_fast ship" speed="7.79" length="8.82" shape="382.05,318.39 380.67,318.93 377.48,318.34 374.12,315.99"/>
    </edge>
    <edge id=":gneJ12_2" function="internal">
        <lane id=":gneJ12_2_0" index="0" disallow="tram rail_urban rail rail_electric rail_fast ship" speed="6.25" length="9.05" shape="376.31,313.65 378.38,315.10 380.34,315.46 382.20,314.74 383.96,312.92"/>
    </edge>
    <edge id=":gneJ12_3" function="internal">
        <lane id=":gneJ12_3_0" index="0" disallow="tram rail_urban rail rail_electric rail_fast ship" speed="8.52" length="14.39" shape="376.31,313.65 378.89,316.77 380.08,319.96 379.86,323.20 378.25,326.52"/>
    </edge>
    <edge id=":gneJ12_4" function="internal">
        <lane id=":gneJ12_4_0" index="0" disallow="tram rail_urban rail rail_electric rail_fast ship" speed="7.12" length="9.77" shape="375.62,324.69 376.67,322.49 376.77,320.31 375.92,318.14 374.12,315.99"/>
    </edge>
    <edge id=":gneJ12_5" function="internal">
        <lane id=":gneJ12_5_0" index="0" disallow="tram rail_urban rail rail_electric rail_fast ship" speed="13.89" length="14.43" shape="375.62,324.69 383.96,312.92"/>
    </edge>
    <edge id=":gneJ13_0" function="internal">
        <lane id=":gneJ13_0_0" index="0" disallow="tram rail_urban rail rail_electric rail_fast ship" speed="6.22" length="9.05" shape="541.67,98.88 539.56,97.48 537.59,97.18 535.77,97.97 534.08,99.86"/>
    </edge>
    <edge id=":gneJ13_1" function="internal">
        <lane id=":gneJ13_1_0" index="0" disallow="tram rail_urban rail rail_electric rail_fast ship" speed="13.89" length="14.44" shape="541.67,98.88 530.99,89.16"/>
    </edge>
    <edge id=":gneJ13_2" function="internal">
        <lane id=":gneJ13_2_0" index="0" disallow="tram rail_urban rail rail_electric rail_fast ship" speed="13.89" length="14.38" shape="533.17,86.82 543.80,96.50"/>
    </edge>
    <edge id=":gneJ13_3" function="internal">
        <lane id=":gneJ13_3_0" index="0" disallow="tram rail_urban rail rail_electric rail_fast ship" speed="8.58" length="14.42" shape="533.17,86.82 535.45,89.69 536.35,92.82 535.90,96.21 534.08,99.86"/>
    </edge>
    <edge id=":gneJ13_4" function="internal">
        <lane id=":gneJ13_4_0" index="0" disallow="tram rail_urban rail rail_electric rail_fast ship" speed="7.19" length="9.85" shape="531.41,98.09 532.70,95.55 533.06,93.22 532.49,91.09 530.99,89.16"/>
    </edge>
    <edge id=":gneJ13_5" function="internal">
        <lane id=":gneJ13_5_0" index="0" disallow="tram rail_urban rail rail_electric rail_fast ship" speed="7.77" length="14.77" shape="531.41,98.09 534.17,95.01 537.15,93.71 540.36,94.21 543.80,96.50"/>
    </edge>
    <edge id=":gneJ14_0" function="internal">
        <lane id=":gneJ14_0_0" index="0" disallow="tram rail_urban rail rail_electric rail_fast ship" speed="3.90" length="2.75" shape="460.37,23.49 459.74,23.05 459.14,22.94 458.56,23.15 458.01,23.68"/>
    </edge>
    <edge id=":gneJ14_1" function="internal">
        <lane id=":gneJ14_1_0" index="0" disallow="tram rail_urban rail rail_electric rail_fast ship" speed="6.07" length="8.26" shape="455.48,21.72 457.13,20.13 458.85,19.50 460.66,19.84 462.55,21.14"/>
    </edge>
    <edge id=":gneJ15_0" function="internal">
        <lane id=":gneJ15_0_0" index="0" disallow="tram rail_urban rail rail_electric rail_fast ship" speed="8.01" length="5.62" shape="384.97,118.12 382.24,120.78 380.56,121.45"/>
    </edge>
    <edge id=":gneJ15_4" function="internal">
        <lane id=":gneJ15_4_0" index="0" disallow="tram rail_urban rail rail_electric rail_fast ship" speed="8.01" length="8.34" shape="380.56,121.45 379.29,121.95 376.14,121.63 372.79,119.82"/>
    </edge>
    <edge id=":gneJ15_1" function="internal">
        <lane id=":gneJ15_1_0" index="0" disallow="tram rail_urban rail rail_electric rail_fast ship" speed="6.51" length="8.88" shape="374.69,117.25 376.82,118.40 378.83,118.60 380.70,117.86 382.44,116.16"/>
    </edge>
    <edge id=":gneJ15_2" function="internal">
        <lane id=":gneJ15_2_0" index="0" disallow="tram rail_urban rail rail_electric rail_fast ship" speed="6.83" length="9.12" shape="374.70,127.80 375.56,125.56 375.53,123.48 374.60,121.57 372.79,119.82"/>
    </edge>
    <edge id=":gneJ15_3" function="internal">
        <lane id=":gneJ15_3_0" index="0" disallow="tram rail_urban rail rail_electric rail_fast ship" speed="13.89" length="13.98" shape="374.70,127.80 376.52,124.70 378.34,121.83 380.28,119.04 382.44,116.16"/>
    </edge>
    <edge id=":gneJ16_0" function="internal">
        <lane id=":gneJ16_0_0" index="0" disallow="tram rail_urban rail rail_electric rail_fast ship" speed="3.91" length="2.39" shape="353.81,167.87 353.34,167.43 353.11,166.93 353.11,166.39 353.35,165.79"/>
    </edge>
    <edge id=":gneJ17_0" function="internal">
        <lane id=":gneJ17_0_0" index="0" disallow="tram rail_urban rail rail_electric rail_fast ship" speed="13.89" length="11.39" shape="448.78,228.44 442.24,237.77"/>
    </edge>
    <edge id=":gneJ17_1" function="internal">
        <lane id=":gneJ17_1_0" index="0" disallow="tram rail_urban rail rail_electric rail_fast ship" speed="7.26" length="4.21" shape="448.78,228.44 446.94,230.22 445.33,230.59"/>
    </edge>
    <edge id=":gneJ17_4" function="internal">
        <lane id=":gneJ17_4_0" index="0" disallow="tram rail_urban rail rail_electric rail_fast ship" speed="7.26" length="7.59" shape="445.33,230.59 444.59,230.76 441.73,230.05 438.37,228.09"/>
    </edge>
    <edge id=":gneJ17_2" function="internal">
        <lane id=":gneJ17_2_0" index="0" disallow="tram rail_urban rail rail_electric rail_fast ship" speed="6.49" length="9.03" shape="439.65,235.90 440.80,233.70 440.97,231.67 440.16,229.80 438.37,228.09"/>
    </edge>
    <edge id=":gneJ17_3" function="internal">
        <lane id=":gneJ17_3_0" index="0" disallow="tram rail_urban rail rail_electric rail_fast ship" speed="13.89" length="11.26" shape="439.65,235.90 446.12,226.67"/>
    </edge>
    <edge id=":gneJ19_0" function="internal">
        <lane id=":gneJ19_0_0" index="0" disallow="tram rail_urban rail rail_electric rail_fast ship" speed="7.74" length="12.44" shape="148.30,209.62 147.04,212.08 147.08,214.71 148.40,217.50 151.01,220.47"/>
    </edge>
    <edge id=":gneJ19_1" function="internal">
        <lane id=":gneJ19_1_0" index="0" disallow="tram rail_urban rail rail_electric rail_fast ship" speed="8.39" length="14.80" shape="148.30,209.62 146.16,213.16 145.53,216.54 146.42,219.76 148.83,222.80"/>
    </edge>
    <edge id=":gneJ19_2" function="internal">
        <lane id=":gneJ19_2_0" index="0" disallow="tram rail_urban rail rail_electric rail_fast ship" speed="13.89" length="15.17" shape="148.30,209.62 146.57,212.58 145.40,215.70 143.84,219.15 140.91,223.07"/>
        <lane id=":gneJ19_2_1" index="1" disallow="tram rail_urban rail rail_electric rail_fast ship" speed="13.89" length="15.17" shape="148.30,209.62 138.57,220.89"/>
    </edge>
    <edge id=":gneJ19_4" function="internal">
        <lane id=":gneJ19_4_0" index="0" disallow="tram rail_urban rail rail_electric rail_fast ship" speed="6.93" length="11.26" shape="136.17,206.12 139.03,208.47 141.59,209.50 143.85,209.22 145.80,207.62"/>
    </edge>
    <edge id=":gneJ19_5" function="internal">
        <lane id=":gneJ19_5_0" index="0" disallow="tram rail_urban rail rail_electric rail_fast ship" speed="13.89" length="20.69" shape="136.17,206.12 151.01,220.47"/>
        <lane id=":gneJ19_5_1" index="1" disallow="tram rail_urban rail rail_electric rail_fast ship" speed="13.89" length="20.69" shape="133.91,208.38 148.83,222.80"/>
    </edge>
    <edge id=":gneJ19_7" function="internal">
        <lane id=":gneJ19_7_0" index="0" disallow="tram rail_urban rail rail_electric rail_fast ship" speed="8.94" length="17.48" shape="133.91,208.38 138.37,213.32 141.02,217.41 141.87,220.66 140.91,223.07"/>
    </edge>
    <edge id=":gneJ19_8" function="internal">
        <lane id=":gneJ19_8_0" index="0" disallow="tram rail_urban rail rail_electric rail_fast ship" speed="8.21" length="14.61" shape="133.91,208.38 137.37,212.33 139.30,215.73 139.70,218.59 138.57,220.89"/>
    </edge>
    <edge id=":gneJ19_9" function="internal">
        <lane id=":gneJ19_9_0" index="0" disallow="tram rail_urban rail rail_electric rail_fast ship" speed="13.89" length="14.94" shape="133.89,216.53 137.46,213.39 140.58,211.50 143.34,209.89 145.80,207.62"/>
    </edge>
    <edge id=":gneJ19_10" function="internal">
        <lane id=":gneJ19_10_0" index="0" disallow="tram rail_urban rail rail_electric rail_fast ship" speed="9.32" length="3.50" shape="133.89,216.53 136.82,214.61"/>
    </edge>
    <edge id=":gneJ19_11" function="internal">
        <lane id=":gneJ19_11_0" index="0" disallow="tram rail_urban rail rail_electric rail_fast ship" speed="8.10" length="2.00" shape="136.23,218.71 137.96,217.71"/>
    </edge>
    <edge id=":gneJ19_12" function="internal">
        <lane id=":gneJ19_12_0" index="0" disallow="tram rail_urban rail rail_electric rail_fast ship" speed="9.32" length="16.14" shape="136.82,214.61 137.22,214.36 141.18,214.29 145.78,216.33 151.01,220.47"/>
    </edge>
    <edge id=":gneJ19_13" function="internal">
        <lane id=":gneJ19_13_0" index="0" disallow="tram rail_urban rail rail_electric rail_fast ship" speed="8.10" length="12.58" shape="137.96,217.71 138.46,217.43 141.30,217.68 144.75,219.47 148.83,222.80"/>
    </edge>
    <edge id=":gneJ2_0" function="internal">
        <lane id=":gneJ2_0_0" index="0" disallow="tram rail_urban rail rail_electric rail_fast ship" speed="3.90" length="2.56" shape="185.08,-16.67 184.46,-16.99 183.88,-17.04 183.35,-16.81 182.86,-16.31"/>
    </edge>
    <edge id=":gneJ2_1" function="internal">
        <lane id=":gneJ2_1_0" index="0" disallow="tram rail_urban rail rail_electric rail_fast ship" speed="6.08" length="7.67" shape="180.28,-18.21 181.75,-19.71 183.35,-20.39 185.08,-20.24 186.94,-19.27"/>
    </edge>
    <edge id=":gneJ20_0" function="internal">
        <lane id=":gneJ20_0_0" index="0" disallow="tram rail_urban rail rail_electric rail_fast ship" speed="13.89" length="15.88" shape="126.51,242.82 115.17,231.65"/>
        <lane id=":gneJ20_0_1" index="1" disallow="tram rail_urban rail rail_electric rail_fast ship" speed="13.89" length="15.88" shape="128.74,240.53 117.43,229.38"/>
        <lane id=":gneJ20_0_2" index="2" disallow="tram rail_urban rail rail_electric rail_fast ship" speed="13.89" length="15.88" shape="130.97,238.23 119.70,227.12"/>
    </edge>
    <edge id=":gneJ20_3" function="internal">
        <lane id=":gneJ20_3_0" index="0" disallow="tram rail_urban rail rail_electric rail_fast ship" speed="7.96" length="13.80" shape="130.97,238.23 127.13,234.22 124.70,231.02 123.69,228.63 124.08,227.04"/>
    </edge>
    <edge id=":gneJ20_4" function="internal">
        <lane id=":gneJ20_4_0" index="0" disallow="tram rail_urban rail rail_electric rail_fast ship" speed="7.11" length="10.83" shape="130.97,238.23 128.14,235.19 126.44,232.68 125.86,230.69 126.42,229.23"/>
    </edge>
    <edge id=":gneJ20_5" function="internal">
        <lane id=":gneJ20_5_0" index="0" disallow="tram rail_urban rail rail_electric rail_fast ship" speed="8.91" length="18.34" shape="131.10,233.59 127.57,236.18 123.74,236.72 119.61,235.21 115.17,231.65"/>
    </edge>
    <edge id=":gneJ20_6" function="internal">
        <lane id=":gneJ20_6_0" index="0" disallow="tram rail_urban rail rail_electric rail_fast ship" speed="8.35" length="15.95" shape="131.10,233.59 128.53,235.16 125.40,234.99 121.70,233.06 117.43,229.38"/>
    </edge>
    <edge id=":gneJ20_7" function="internal">
        <lane id=":gneJ20_7_0" index="0" disallow="tram rail_urban rail rail_electric rail_fast ship" speed="6.98" length="10.84" shape="128.76,231.41 127.33,232.07 125.34,231.57 122.80,229.92 119.70,227.12"/>
    </edge>
    <edge id=":gneJ21_0" function="internal">
        <lane id=":gneJ21_0_0" index="0" disallow="tram rail_urban rail rail_electric rail_fast ship" speed="8.09" length="13.06" shape="337.14,385.90 336.00,388.55 336.16,391.34 337.62,394.26 340.38,397.30"/>
    </edge>
    <edge id=":gneJ21_1" function="internal">
        <lane id=":gneJ21_1_0" index="0" disallow="tram rail_urban rail rail_electric rail_fast ship" speed="8.72" length="15.33" shape="337.14,385.90 335.17,389.70 334.70,393.26 335.72,396.58 338.23,399.67"/>
    </edge>
    <edge id=":gneJ21_2" function="internal">
        <lane id=":gneJ21_2_0" index="0" disallow="tram rail_urban rail rail_electric rail_fast ship" speed="13.89" length="15.71" shape="337.14,385.90 335.59,389.00 334.58,392.30 333.18,396.00 330.46,400.30"/>
        <lane id=":gneJ21_2_1" index="1" disallow="tram rail_urban rail rail_electric rail_fast ship" speed="13.89" length="15.71" shape="337.14,385.90 327.95,398.32"/>
    </edge>
    <edge id=":gneJ21_4" function="internal">
        <lane id=":gneJ21_4_0" index="0" disallow="tram rail_urban rail rail_electric rail_fast ship" speed="6.79" length="11.02" shape="325.11,383.22 327.98,385.40 330.50,386.27 332.67,385.82 334.51,384.07"/>
    </edge>
    <edge id=":gneJ21_5" function="internal">
        <lane id=":gneJ21_5_0" index="0" disallow="tram rail_urban rail rail_electric rail_fast ship" speed="13.89" length="20.80" shape="325.11,383.22 340.38,397.30"/>
        <lane id=":gneJ21_5_1" index="1" disallow="tram rail_urban rail rail_electric rail_fast ship" speed="13.89" length="20.80" shape="322.93,385.55 338.23,399.67"/>
    </edge>
    <edge id=":gneJ21_7" function="internal">
        <lane id=":gneJ21_7_0" index="0" disallow="tram rail_urban rail rail_electric rail_fast ship" speed="9.17" length="17.75" shape="322.93,385.55 327.54,390.34 330.33,394.40 331.30,397.72 330.46,400.30"/>
    </edge>
    <edge id=":gneJ21_8" function="internal">
        <lane id=":gneJ21_8_0" index="0" disallow="tram rail_urban rail rail_electric rail_fast ship" speed="8.46" length="14.98" shape="322.93,385.55 326.50,389.40 328.53,392.81 329.01,395.78 327.95,398.32"/>
    </edge>
    <edge id=":gneJ21_9" function="internal">
        <lane id=":gneJ21_9_0" index="0" disallow="tram rail_urban rail rail_electric rail_fast ship" speed="13.89" length="15.55" shape="322.93,394.35 326.36,390.76 329.45,388.48 332.17,386.56 334.51,384.07"/>
    </edge>
    <edge id=":gneJ21_10" function="internal">
        <lane id=":gneJ21_10_0" index="0" disallow="tram rail_urban rail rail_electric rail_fast ship" speed="9.20" length="4.04" shape="322.93,394.35 326.09,391.84"/>
    </edge>
    <edge id=":gneJ21_11" function="internal">
        <lane id=":gneJ21_11_0" index="0" disallow="tram rail_urban rail rail_electric rail_fast ship" speed="7.97" length="2.25" shape="325.44,396.34 327.27,395.02"/>
    </edge>
    <edge id=":gneJ21_12" function="internal">
        <lane id=":gneJ21_12_0" index="0" disallow="tram rail_urban rail rail_electric rail_fast ship" speed="9.20" length="16.10" shape="326.09,391.84 326.25,391.71 330.27,391.32 334.98,393.19 340.38,397.30"/>
    </edge>
    <edge id=":gneJ21_13" function="internal">
        <lane id=":gneJ21_13_0" index="0" disallow="tram rail_urban rail rail_electric rail_fast ship" speed="7.97" length="12.55" shape="327.27,395.02 327.67,394.73 330.55,394.75 334.07,396.40 338.23,399.67"/>
    </edge>
    <edge id=":gneJ22_0" function="internal">
        <lane id=":gneJ22_0_0" index="0" disallow="tram rail_urban rail rail_electric rail_fast ship" speed="13.89" length="15.96" shape="314.24,424.82 302.61,413.78"/>
        <lane id=":gneJ22_0_1" index="1" disallow="tram rail_urban rail rail_electric rail_fast ship" speed="13.89" length="15.96" shape="316.41,422.48 304.83,411.48"/>
        <lane id=":gneJ22_0_2" index="2" disallow="tram rail_urban rail rail_electric rail_fast ship" speed="13.89" length="15.96" shape="318.59,420.13 307.06,409.19"/>
    </edge>
    <edge id=":gneJ22_3" function="internal">
        <lane id=":gneJ22_3_0" index="0" disallow="tram rail_urban rail rail_electric rail_fast ship" speed="8.18" length="13.98" shape="318.59,420.13 314.67,416.21 312.18,413.04 311.10,410.60 311.44,408.90"/>
    </edge>
    <edge id=":gneJ22_4" function="internal">
        <lane id=":gneJ22_4_0" index="0" disallow="tram rail_urban rail rail_electric rail_fast ship" speed="7.36" length="11.12" shape="318.59,420.13 315.71,417.15 313.98,414.62 313.39,412.53 313.95,410.88"/>
    </edge>
    <edge id=":gneJ22_5" function="internal">
        <lane id=":gneJ22_5_0" index="0" disallow="tram rail_urban rail rail_electric rail_fast ship" speed="8.87" length="19.07" shape="318.97,414.85 315.47,417.93 311.57,418.77 307.28,417.39 302.61,413.78"/>
    </edge>
    <edge id=":gneJ22_6" function="internal">
        <lane id=":gneJ22_6_0" index="0" disallow="tram rail_urban rail rail_electric rail_fast ship" speed="8.29" length="16.52" shape="318.97,414.85 316.35,416.84 313.12,416.94 309.28,415.15 304.83,411.48"/>
    </edge>
    <edge id=":gneJ22_7" function="internal">
        <lane id=":gneJ22_7_0" index="0" disallow="tram rail_urban rail rail_electric rail_fast ship" speed="6.91" length="11.13" shape="316.46,412.86 314.96,413.79 312.90,413.49 310.26,411.95 307.06,409.19"/>
    </edge>
    <edge id=":gneJ3_0" function="internal">
        <lane id=":gneJ3_0_0" index="0" disallow="tram rail_urban rail rail_electric rail_fast ship" speed="7.27" length="10.20" shape="72.72,133.99 71.38,136.44 71.02,138.80 71.64,141.05 73.25,143.20"/>
    </edge>
    <edge id=":gneJ3_1" function="internal">
        <lane id=":gneJ3_1_0" index="0" disallow="tram rail_urban rail rail_electric rail_fast ship" speed="8.03" length="12.64" shape="72.72,133.99 70.52,137.57 69.50,140.67 69.65,143.30 70.99,145.46"/>
    </edge>
    <edge id=":gneJ3_2" function="internal">
        <lane id=":gneJ3_2_0" index="0" disallow="tram rail_urban rail rail_electric rail_fast ship" speed="13.89" length="15.06" shape="72.72,133.99 70.46,136.99 68.10,139.94 65.65,142.81 63.13,145.60"/>
    </edge>
    <edge id=":gneJ3_3" function="internal">
        <lane id=":gneJ3_3_0" index="0" disallow="tram rail_urban rail rail_electric rail_fast ship" speed="6.28" length="9.04" shape="62.46,132.85 64.54,134.27 66.51,134.62 68.38,133.90 70.14,132.10"/>
    </edge>
    <edge id=":gneJ3_4" function="internal">
        <lane id=":gneJ3_4_0" index="0" disallow="tram rail_urban rail rail_electric rail_fast ship" speed="13.89" length="14.89" shape="62.46,132.85 73.25,143.20"/>
        <lane id=":gneJ3_4_1" index="1" disallow="tram rail_urban rail rail_electric rail_fast ship" speed="13.89" length="14.89" shape="60.29,135.20 70.99,145.46"/>
    </edge>
    <edge id=":gneJ3_6" function="internal">
        <lane id=":gneJ3_6_0" index="0" disallow="tram rail_urban rail rail_electric rail_fast ship" speed="13.89" length="14.69" shape="60.79,143.41 63.28,140.67 65.64,137.90 67.91,135.06 70.14,132.10"/>
    </edge>
    <edge id=":gneJ3_7" function="internal">
        <lane id=":gneJ3_7_0" index="0" disallow="tram rail_urban rail rail_electric rail_fast ship" speed="7.94" length="14.33" shape="60.79,143.41 63.86,140.94 66.97,140.08 70.09,140.83 73.25,143.20"/>
    </edge>
    <edge id=":gneJ3_8" function="internal">
        <lane id=":gneJ3_8_0" index="0" disallow="tram rail_urban rail rail_electric rail_fast ship" speed="7.26" length="11.79" shape="60.79,143.41 62.90,141.96 65.31,141.82 68.00,142.99 70.99,145.46"/>
    </edge>
    <edge id=":gneJ5_0" function="internal">
        <lane id=":gneJ5_0_0" index="0" disallow="tram rail_urban rail rail_electric rail_fast ship" speed="13.89" length="9.06" shape="48.71,165.19 42.24,159.17"/>
        <lane id=":gneJ5_0_1" index="1" disallow="tram rail_urban rail rail_electric rail_fast ship" speed="13.89" length="9.06" shape="50.97,162.93 44.34,156.75"/>
        <lane id=":gneJ5_0_2" index="2" disallow="tram rail_urban rail rail_electric rail_fast ship" speed="13.89" length="9.06" shape="53.23,160.66 46.44,154.33"/>
    </edge>
    <edge id=":gneJ5_3" function="internal">
        <lane id=":gneJ5_3_0" index="0" disallow="tram rail_urban rail rail_electric rail_fast ship" speed="7.67" length="12.61" shape="53.16,156.28 50.08,159.02 47.24,160.42 44.63,160.47 42.24,159.17"/>
    </edge>
    <edge id=":gneJ5_4" function="internal">
        <lane id=":gneJ5_4_0" index="0" disallow="tram rail_urban rail rail_electric rail_fast ship" speed="6.90" length="9.99" shape="53.16,156.28 51.03,158.00 48.86,158.64 46.63,158.23 44.34,156.75"/>
    </edge>
    <edge id=":gneJ5_5" function="internal">
        <lane id=":gneJ5_5_0" index="0" disallow="tram rail_urban rail rail_electric rail_fast ship" speed="6.12" length="7.66" shape="53.16,156.28 51.98,156.97 50.48,156.87 48.63,155.99 46.44,154.33"/>
    </edge>
    <edge id=":gneJ7_0" function="internal">
        <lane id=":gneJ7_0_0" index="0" disallow="tram rail_urban rail rail_electric rail_fast ship" speed="6.08" length="7.58" shape="136.54,186.34 135.29,184.69 134.86,183.02 135.25,181.34 136.44,179.65"/>
    </edge>
    <edge id=":gneJ7_1" function="internal">
        <lane id=":gneJ7_1_0" index="0" disallow="tram rail_urban rail rail_electric rail_fast ship" speed="3.91" length="2.53" shape="138.77,181.85 138.37,182.41 138.24,182.97 138.39,183.53 138.80,184.08"/>
    </edge>
    <edge id=":gneJ8_0" function="internal">
        <lane id=":gneJ8_0_0" index="0" disallow="tram rail_urban rail rail_electric rail_fast ship" speed="6.52" length="8.47" shape="157.89,205.82 155.82,204.83 153.89,204.69 152.09,205.41 150.41,206.98"/>
    </edge>
    <edge id=":gneJ8_1" function="internal">
        <lane id=":gneJ8_1_0" index="0" disallow="tram rail_urban rail rail_electric rail_fast ship" speed="13.89" length="13.41" shape="157.89,205.82 155.02,203.82 152.48,201.87 150.06,199.77 147.54,197.34"/>
    </edge>
    <edge id=":gneJ8_2" function="internal">
        <lane id=":gneJ8_2_0" index="0" disallow="tram rail_urban rail rail_electric rail_fast ship" speed="13.89" length="12.78" shape="149.80,195.08 152.25,197.44 154.50,199.41 156.87,201.22 159.67,203.16"/>