<?xml version="1.0" encoding="UTF-8"?>

<!-- generated on 03/09/21 19:27:21 by Eclipse SUMO netedit Version 1.7.0
<configuration xmlns:xsi="http://www.w3.org/2001/XMLSchema-instance" xsi:noNamespaceSchemaLocation="http://sumo.dlr.de/xsd/netconvertConfiguration.xsd">

    <input>
        <sumo-net-file value="D:\Sumo\ntust\test.net.xml"/>
    </input>

    <output>
        <output-file value="D:\Sumo\ntust\test.net.xml"/>
    </output>

    <processing>
        <geometry.min-radius.fix.railways value="false"/>
        <geometry.max-grade.fix value="false"/>
        <offset.disable-normalization value="true"/>
        <lefthand value="false"/>
    </processing>

    <junctions>
        <no-turnarounds value="true"/>
        <junctions.corner-detail value="5"/>
        <junctions.limit-turn-speed value="5.5"/>
        <rectangular-lane-cut value="false"/>
    </junctions>

    <pedestrian>
        <walkingareas value="false"/>
    </pedestrian>

    <netedit>
        <route-files value="D:\Sumo\ntust\test.rou.xml"/>
    </netedit>

    <report>
        <aggregate-warnings value="5"/>
    </report>

</configuration>
-->

<routes xmlns:xsi="http://www.w3.org/2001/XMLSchema-instance" xsi:noNamespaceSchemaLocation="http://sumo.dlr.de/xsd/routes_file.xsd">
    <flow id="flow_0" departLane="free" departSpeed="max" begin="0.00" end="3600.00" probability="0.33">
        <route edges="gneE3 gneE24 gneE27 gneE32" color="yellow"/>
    </flow>
    <flow id="flow_2" departLane="free" departSpeed="max" begin="0.00" end="3600.00" probability="0.33">
        <route edges="gneE31 gneE29 gneE25 gneE6" color="yellow"/>
    </flow>
    <flow id="flow_1" departLane="free" departSpeed="max" begin="0.00" end="3600.00" probability="0.03">
        <route edges="gneE3 -gneE2 -gneE1 -gneE17 -gneE16 -gneE15 gneE22" color="yellow"/>
    </flow>
    <flow id="flow_3" departLane="free" departSpeed="max" begin="0.00" end="3600.00" probability="0.03">
        <route edges="gneE31 gneE30 gneE28 gneE19 gneE21 gneE22" color="yellow"/>
    </flow>
    <flow id="flow_4" departLane="free" departSpeed="max" begin="0.00" end="3600.00" probability="0.01">
        <route edges="gneE3 gneE24 -gneE26 gneE25 gneE6" color="yellow"/>
    </flow>
    <flow id="flow_5" departLane="free" departSpeed="max" begin="0.00" end="3600.00" probability="0.005">
        <route edges="gneE31 gneE30 gneE32" color="yellow"/>
    </flow>
    <flow id="flow_6" departLane="free" departSpeed="max" begin="0.00" end="3600.00" probability="0.005">
        <route edges="gneE3 gneE24 gneE23 gneE9 gneE10 gneE11" color="yellow"/>
    </flow>
    <flow id="flow_7" departLane="free" departSpeed="max" begin="0.00" end="3600.00" probability="0.0015">
        <route edges="-gneE22 -gneE21 -gneE19 -gneE28 -gneE30 gneE29 gneE26 gneE23 -gneE8 -gneE7 -gneE11" color="yellow"/>
    </flow>
    <flow id="flow_8" departLane="free" departSpeed="max" begin="0.00" end="3600.00" probability="0.02">
        <route edges="gneE3 gneE24 gneE27 gneE28 gneE19 gneE20 gneE18 gneE17 gneE1" color="yellow"/>
    </flow>
    <flow id="flow_9" departLane="free" departSpeed="max" begin="0.00" end="3600.00" probability="0.03">
        <route edges="gneE3 -gneE2 -gneE1" color="yellow"/>
    </flow>
    <flow id="flow_10" departLane="free" departSpeed="max" begin="0.00" end="3600.00" probability="0.003">
        <route edges="gneE31 gneE30 gneE28 gneE19 gneE20 gneE18 gneE17 gneE1" color="yellow"/>
    </flow>
    <flow id="flow_11" departLane="free" departSpeed="max" begin="0.00" end="3600.00" probability="0.0015">
        <route edges="-gneE22 gneE15 gneE16 gneE17 gneE1" color="yellow"/>
    </flow>
    <flow id="flow_12" departLane="free" departSpeed="max" begin="0.00" end="3600.00" probability="0.01">
        <route edges="-gneE22 -gneE21 -gneE19 -gneE28 gneE32" color="yellow"/>
    </flow>
    <flow id="flow_13" departLane="free" departSpeed="max" begin="0.00" end="3600.00" probability="0.01">
        <route edges="-gneE22 gneE15 gneE16 gneE17 gneE1 gneE2 gneE5 gneE6" color="yellow"/>
    </flow>
    <flow id="flow_14" departLane="free" departSpeed="max" begin="0.00" end="3600.00" probability="0.01">
        <route edges="-gneE22 -gneE21 -gneE19 -gneE28 -gneE30 gneE29 gneE25 gneE6" color="yellow"/>
    </flow>
    <flow id="flow_15" departLane="free" departSpeed="max" begin="0.00" end="3600.00" probability="0.001">
        <route edges="gneE31 gneE29 gneE26 gneE23 -gneE8 -gneE7 -gneE11" color="yellow"/>
    </flow>
    
</routes>
