<?xml version="1.0" encoding="UTF-8"?>

<!-- generated on 12/23/20 17:43:29 by Eclipse SUMO jtrrouter Version 1.7.0
<configuration xmlns:xsi="http://www.w3.org/2001/XMLSchema-instance" xsi:noNamespaceSchemaLocation="http://sumo.dlr.de/xsd/jtrrouterConfiguration.xsd">

    <input>
        <net-file value="D:\Sumo\ntust\ntust.net.xml"/>
        <route-files value="D:\Sumo\ntust\ntust.flow.xml"/>
        <turn-ratio-files value="D:\Sumo\ntust\ntust.turndefs.xml"/>
    </input>

    <output>
        <output-file value="D:\Sumo\ntust\ntust.rou.xml"/>
    </output>

    <processing>
        <no-internal-links value="true"/>
        <accept-all-destinations value="true"/>
    </processing>

    <time>
        <begin value="0"/>
        <end value="360"/>
    </time>

</configuration>
-->

<routes xmlns:xsi="http://www.w3.org/2001/XMLSchema-instance" xsi:noNamespaceSchemaLocation="http://sumo.dlr.de/xsd/routes_file.xsd">
    <vehicle id="0.0" depart="0.00">
        <route edges="gneE3 gneE24 gneE27 -gneE30 gneE29 gneE25 gneE6"/>
    </vehicle>
    <vehicle id="1.0" depart="0.00">
        <route edges="gneE31 gneE29 gneE25 gneE6"/>
    </vehicle>
    <vehicle id="2.0" depart="0.00">
        <route edges="-gneE22 gneE15 gneE16 gneE17 gneE1 gneE2 gneE5 gneE6"/>
    </vehicle>
    <vehicle id="0.1" depart="1.50">
        <route edges="gneE3 -gneE2 -gneE1 -gneE17 -gneE16 -gneE15 gneE22"/>
    </vehicle>
    <vehicle id="1.1" depart="1.50">
        <route edges="gneE31 gneE29 gneE25 gneE6"/>
    </vehicle>
    <vehicle id="0.2" depart="3.00">
        <route edges="gneE3 gneE24 gneE27 gneE32"/>
    </vehicle>
    <vehicle id="1.2" depart="3.00">
        <route edges="gneE31 gneE29 gneE25 gneE6"/>
    </vehicle>
    <vehicle id="0.3" depart="4.50">
        <route edges="gneE3 gneE24 gneE27 gneE28 gneE19 gneE20 gneE18 -gneE16 -gneE15 -gneE21 -gneE19 -gneE28 -gneE30 gneE29 gneE25 gneE6"/>
    </vehicle>
    <vehicle id="1.3" depart="4.50">
        <route edges="gneE31 gneE29 gneE25 gneE6"/>
    </vehicle>
    <vehicle id="0.4" depart="6.00">
        <route edges="gneE3 gneE24 gneE27 gneE32"/>
    </vehicle>
    <vehicle id="1.4" depart="6.00">
        <route edges="gneE31 gneE29 gneE26 gneE27 gneE32"/>
    </vehicle>
    <vehicle id="2.1" depart="7.00">
        <route edges="-gneE22 -gneE21 -gneE19 -gneE28 gneE32"/>
    </vehicle>
    <vehicle id="0.5" depart="7.50">
        <route edges="gneE3 -gneE2 -gneE1 -gneE17 -gneE16 -gneE15 gneE22"/>
    </vehicle>
    <vehicle id="1.5" depart="7.50">
        <route edges="gneE31 gneE30 gneE28 gneE19 gneE21 gneE15 gneE16 gneE17 gneE1 gneE2 gneE24 -gneE26 gneE25 gneE6"/>
    </vehicle>
    <vehicle id="0.6" depart="9.00">
        <route edges="gneE3 gneE24 gneE27 gneE28 gneE19 gneE21 gneE22"/>
    </vehicle>
    <vehicle id="1.6" depart="9.00">
        <route edges="gneE31 gneE29 gneE25 gneE6"/>
    </vehicle>
    <vehicle id="0.7" depart="10.50">
        <route edges="gneE3 gneE24 gneE27 gneE32"/>
    </vehicle>
    <vehicle id="1.7" depart="10.50">
        <route edges="gneE31 gneE30 gneE28 gneE19 gneE20 gneE18 gneE17 gneE1 gneE2 gneE24 gneE27 gneE32"/>
    </vehicle>
    <vehicle id="0.8" depart="12.00">
        <route edges="gneE3 gneE24 gneE27 gneE32"/>
    </vehicle>
    <vehicle id="1.8" depart="12.00">
        <route edges="gneE31 gneE29 gneE25 gneE6"/>
    </vehicle>
    <vehicle id="0.9" depart="13.50">
        <route edges="gneE3 gneE24 gneE23 -gneE8 -gneE7 gneE0 -gneE17 -gneE16 -gneE15 gneE22"/>
    </vehicle>
    <vehicle id="1.9" depart="13.50">
        <route edges="gneE31 gneE29 gneE25 gneE6"/>
    </vehicle>
    <vehicle id="2.2" depart="14.00">
        <route edges="-gneE22 -gneE21 -gneE19 -gneE28 gneE32"/>
    </vehicle>
    <vehicle id="0.10" depart="15.00">
        <route edges="gneE3 gneE24 gneE27 gneE28 gneE19 gneE21 gneE22"/>
    </vehicle>
    <vehicle id="1.10" depart="15.00">
        <route edges="gneE31 gneE29 gneE25 gneE6"/>
    </vehicle>
    <vehicle id="0.11" depart="16.50">
        <route edges="gneE3 gneE24 gneE27 gneE32"/>
    </vehicle>
    <vehicle id="1.11" depart="16.50">
        <route edges="gneE31 gneE29 gneE25 gneE6"/>
    </vehicle>
    <vehicle id="0.12" depart="18.00">
        <route edges="gneE3 gneE24 gneE27 gneE32"/>
    </vehicle>
    <vehicle id="1.12" depart="18.00">
        <route edges="gneE31 gneE29 gneE25 gneE6"/>
    </vehicle>
    <vehicle id="0.13" depart="19.50">
        <route edges="gneE3 gneE24 gneE27 gneE32"/>
    </vehicle>
    <vehicle id="1.13" depart="19.50">
        <route edges="gneE31 gneE29 gneE25 gneE6"/>
    </vehicle>
    <vehicle id="0.14" depart="21.00">
        <route edges="gneE3 gneE24 gneE27 -gneE30 gneE29 gneE26 gneE23 -gneE8 -gneE7 -gneE11 -gneE10 -gneE9 -gneE23 -gneE26 gneE25 gneE6"/>
    </vehicle>
    <vehicle id="1.14" depart="21.00">
        <route edges="gneE31 gneE30 gneE32"/>
    </vehicle>
    <vehicle id="2.3" depart="21.00">
        <route edges="-gneE22 -gneE21 gneE20 gneE18 -gneE16 -gneE15 gneE22"/>
    </vehicle>
    <vehicle id="0.15" depart="22.50">
        <route edges="gneE3 gneE24 gneE27 gneE32"/>
    </vehicle>
    <vehicle id="1.15" depart="22.50">
        <route edges="gneE31 gneE29 gneE25 gneE6"/>
    </vehicle>
    <vehicle id="0.16" depart="24.00">
        <route edges="gneE3 gneE24 gneE23 gneE9 gneE10 gneE11 gneE0 -gneE17 -gneE16 -gneE15 -gneE21 -gneE19 -gneE28 -gneE30 gneE29 gneE25 gneE6"/>
    </vehicle>
    <vehicle id="1.16" depart="24.00">
        <route edges="gneE31 gneE29 gneE26 gneE27 gneE32"/>
    </vehicle>
    <vehicle id="0.17" depart="25.50">
        <route edges="gneE3 gneE24 -gneE26 gneE25 gneE6"/>
    </vehicle>
    <vehicle id="1.17" depart="25.50">
        <route edges="gneE31 gneE29 gneE25 gneE6"/>
    </vehicle>
    <vehicle id="0.18" depart="27.00">
        <route edges="gneE3 -gneE2 -gneE1 -gneE17 -gneE16 -gneE15 -gneE21 gneE20 gneE18 gneE17 gneE1 gneE2 gneE24 gneE23 gneE9 gneE10 gneE12"/>
    </vehicle>
    <vehicle id="1.18" depart="27.00">
        <route edges="gneE31 gneE29 gneE25 gneE6"/>
    </vehicle>
    <vehicle id="2.4" depart="28.00">
        <route edges="-gneE22 gneE15 gneE16 gneE17 gneE1 gneE2 gneE24 gneE27 gneE32"/>
    </vehicle>
    <vehicle id="0.19" depart="28.50">
        <route edges="gneE3 gneE24 gneE27 gneE32"/>
    </vehicle>
    <vehicle id="1.19" depart="28.50">
        <route edges="gneE31 gneE29 gneE26 gneE27 -gneE30"/>
    </vehicle>
    <vehicle id="0.20" depart="30.00">
        <route edges="gneE3 gneE24 gneE27 -gneE30 gneE29 gneE25 gneE6"/>
    </vehicle>
    <vehicle id="1.20" depart="30.00">
        <route edges="gneE31 gneE29 gneE25 gneE6"/>
    </vehicle>
    <vehicle id="0.21" depart="31.50">
        <route edges="gneE3 -gneE2 -gneE1 -gneE17 -gneE16 -gneE15 -gneE21 -gneE19 -gneE28 -gneE30 gneE29 gneE25 gneE6"/>
    </vehicle>
    <vehicle id="1.21" depart="31.50">
        <route edges="gneE31 gneE29 gneE25 gneE6"/>
    </vehicle>
    <vehicle id="0.22" depart="33.00">
        <route edges="gneE3 gneE24 gneE27 gneE28 gneE19 gneE21 gneE22"/>
    </vehicle>
    <vehicle id="1.22" depart="33.00">
        <route edges="gneE31 gneE29 gneE26 gneE27 -gneE30"/>
    </vehicle>
    <vehicle id="0.23" depart="34.50">
        <route edges="gneE3 gneE24 gneE27 gneE32"/>
    </vehicle>
    <vehicle id="1.23" depart="34.50">
        <route edges="gneE31 gneE29 gneE25 gneE6"/>
    </vehicle>
    <vehicle id="2.5" depart="35.00">
        <route edges="-gneE22 gneE15 gneE16 gneE17 gneE1 gneE2 gneE5 gneE6"/>
    </vehicle>
    <vehicle id="0.24" depart="36.00">
        <route edges="gneE3 gneE24 gneE27 gneE32"/>
    </vehicle>
    <vehicle id="1.24" depart="36.00">
        <route edges="gneE31 gneE29 gneE25 gneE6"/>
    </vehicle>
    <vehicle id="0.25" depart="37.50">
        <route edges="gneE3 gneE24 gneE27 gneE32"/>
    </vehicle>
    <vehicle id="1.25" depart="37.50">
        <route edges="gneE31 gneE29 gneE25 gneE6"/>
    </vehicle>
    <vehicle id="0.26" depart="39.00">
        <route edges="gneE3 gneE24 gneE27 gneE32"/>
    </vehicle>
    <vehicle id="1.26" depart="39.00">
        <route edges="gneE31 gneE29 gneE25 gneE6"/>
    </vehicle>
    <vehicle id="0.27" depart="40.50">
        <route edges="gneE3 gneE24 gneE27 gneE28 gneE19 gneE21 gneE15 gneE16 gneE17 gneE1 gneE2 gneE5 gneE6"/>
    </vehicle>
    <vehicle id="1.27" depart="40.50">
        <route edges="gneE31 gneE29 gneE25 gneE6"/>
    </vehicle>
    <vehicle id="0.28" depart="42.00">
        <route edges="gneE3 gneE24 gneE27 gneE28 gneE19 gneE21 gneE22"/>
    </vehicle>
    <vehicle id="1.28" depart="42.00">
        <route edges="gneE31 gneE29 gneE25 gneE6"/>
    </vehicle>
    <vehicle id="2.6" depart="42.00">
        <route edges="-gneE22 gneE15 gneE16 gneE17 gneE1 gneE2 gneE24 -gneE26 gneE25 gneE6"/>
    </vehicle>
    <vehicle id="0.29" depart="43.50">
        <route edges="gneE3 gneE24 gneE27 gneE32"/>
    </vehicle>
    <vehicle id="1.29" depart="43.50">
        <route edges="gneE31 gneE29 gneE25 gneE6"/>
    </vehicle>
    <vehicle id="0.30" depart="45.00">
        <route edges="gneE3 -gneE2 -gneE1 -gneE17 -gneE16 -gneE15 -gneE21 -gneE19 -gneE28 gneE32"/>
    </vehicle>
    <vehicle id="1.30" depart="45.00">
        <route edges="gneE31 gneE30 gneE32"/>
    </vehicle>
    <vehicle id="0.31" depart="46.50">
        <route edges="gneE3 gneE24 gneE27 gneE32"/>
    </vehicle>
    <vehicle id="1.31" depart="46.50">
        <route edges="gneE31 gneE29 gneE25 gneE6"/>
    </vehicle>
    <vehicle id="0.32" depart="48.00">
        <route edges="gneE3 gneE24 gneE27 gneE32"/>
    </vehicle>
    <vehicle id="1.32" depart="48.00">
        <route edges="gneE31 gneE29 gneE25 gneE6"/>
    </vehicle>
    <vehicle id="2.7" depart="49.00">
        <route edges="-gneE22 gneE15 gneE16 gneE17 gneE1 gneE2 gneE24 gneE23 -gneE8 -gneE7 gneE0 -gneE17 -gneE16 -gneE15 gneE22"/>
    </vehicle>
    <vehicle id="0.33" depart="49.50">
        <route edges="gneE3 gneE24 gneE27 gneE32"/>
    </vehicle>
    <vehicle id="1.33" depart="49.50">
        <route edges="gneE31 gneE29 gneE25 gneE6"/>
    </vehicle>
    <vehicle id="0.34" depart="51.00">
        <route edges="gneE3 gneE24 gneE27 gneE28 gneE19 gneE21 gneE22"/>
    </vehicle>
    <vehicle id="1.34" depart="51.00">
        <route edges="gneE31 gneE29 gneE25 gneE6"/>
    </vehicle>
    <vehicle id="0.35" depart="52.50">
        <route edges="gneE3 gneE24 gneE27 gneE28 gneE19 gneE20 gneE18 -gneE16 -gneE15 -gneE21 -gneE19 -gneE28 -gneE30 gneE29 gneE26 gneE23 gneE9 gneE10 gneE13"/>
    </vehicle>
    <vehicle id="1.35" depart="52.50">
        <route edges="gneE31 gneE29 gneE26 gneE27 gneE32"/>
    </vehicle>
    <vehicle id="0.36" depart="54.00">
        <route edges="gneE3 gneE24 gneE27 gneE32"/>
    </vehicle>
    <vehicle id="1.36" depart="54.00">
        <route edges="gneE31 gneE30 gneE28 gneE19 gneE21 gneE22"/>
    </vehicle>
    <vehicle id="0.37" depart="55.50">
        <route edges="gneE3 gneE24 gneE27 gneE28 gneE19 gneE21 gneE22"/>
    </vehicle>
    <vehicle id="1.37" depart="55.50">
        <route edges="gneE31 gneE29 gneE25 gneE6"/>
    </vehicle>
    <vehicle id="2.8" depart="56.00">
        <route edges="-gneE22 gneE15 gneE16 gneE17 gneE1 gneE2 gneE5 gneE6"/>
    </vehicle>
    <vehicle id="0.38" depart="57.00">
        <route edges="gneE3 gneE24 gneE27 gneE28 -gneE13 gneE12"/>
    </vehicle>
    <vehicle id="1.38" depart="57.00">
        <route edges="gneE31 gneE29 gneE25 gneE6"/>
    </vehicle>
    <vehicle id="0.39" depart="58.50">
        <route edges="gneE3 gneE24 gneE27 gneE28 gneE19 gneE21 gneE15 gneE16 gneE17 gneE1 gneE2 gneE5 gneE6"/>
    </vehicle>
    <vehicle id="1.39" depart="58.50">
        <route edges="gneE31 gneE29 gneE25 gneE6"/>
    </vehicle>
    <vehicle id="0.40" depart="60.00">
        <route edges="gneE3 -gneE2 -gneE1 -gneE17 -gneE16 -gneE15 gneE22"/>
    </vehicle>
    <vehicle id="1.40" depart="60.00">
        <route edges="gneE31 gneE30 gneE28 gneE19 gneE21 gneE22"/>
    </vehicle>
    <vehicle id="0.41" depart="61.50">
        <route edges="gneE3 gneE24 gneE27 gneE32"/>
    </vehicle>
    <vehicle id="1.41" depart="61.50">
        <route edges="gneE31 gneE30 gneE28 gneE19 gneE20 gneE18 -gneE16 -gneE15 gneE22"/>
    </vehicle>
    <vehicle id="0.42" depart="63.00">
        <route edges="gneE3 gneE24 gneE23 gneE9 gneE10 gneE12"/>
    </vehicle>
    <vehicle id="1.42" depart="63.00">
        <route edges="gneE31 gneE29 gneE25 gneE6"/>
    </vehicle>
    <vehicle id="2.9" depart="63.00">
        <route edges="-gneE22 -gneE21 -gneE19 -gneE28 gneE32"/>
    </vehicle>
    <vehicle id="0.43" depart="64.50">
        <route edges="gneE3 gneE24 gneE27 gneE32"/>
    </vehicle>
    <vehicle id="1.43" depart="64.50">
        <route edges="gneE31 gneE29 gneE25 gneE6"/>
    </vehicle>
    <vehicle id="0.44" depart="66.00">
        <route edges="gneE3 gneE24 gneE27 gneE28 gneE19 gneE20 gneE18 -gneE16 -gneE15 -gneE21 -gneE19 -gneE28 gneE32"/>
    </vehicle>
    <vehicle id="1.44" depart="66.00">
        <route edges="gneE31 gneE29 gneE25 gneE6"/>
    </vehicle>
    <vehicle id="0.45" depart="67.50">
        <route edges="gneE3 gneE24 gneE23 -gneE8 -gneE7 -gneE11 gneE13 -gneE28 -gneE30 gneE29 gneE25 gneE6"/>
    </vehicle>
    <vehicle id="1.45" depart="67.50">
        <route edges="gneE31 gneE29 gneE25 gneE6"/>
    </vehicle>
    <vehicle id="0.46" depart="69.00">
        <route edges="gneE3 gneE24 gneE27 gneE32"/>
    </vehicle>
    <vehicle id="1.46" depart="69.00">
        <route edges="gneE31 gneE29 gneE25 gneE6"/>
    </vehicle>
    <vehicle id="2.10" depart="70.00">
        <route edges="-gneE22 gneE15 gneE16 gneE17 gneE1 gneE2 gneE5 gneE6"/>
    </vehicle>
    <vehicle id="0.47" depart="70.50">
        <route edges="gneE3 gneE24 gneE27 gneE32"/>
    </vehicle>
    <vehicle id="1.47" depart="70.50">
        <route edges="gneE31 gneE29 gneE25 gneE6"/>
    </vehicle>
    <vehicle id="0.48" depart="72.00">
        <route edges="gneE3 gneE24 gneE27 gneE32"/>
    </vehicle>
    <vehicle id="1.48" depart="72.00">
        <route edges="gneE31 gneE29 gneE25 gneE6"/>
    </vehicle>
    <vehicle id="0.49" depart="73.50">
        <route edges="gneE3 gneE24 -gneE26 gneE25 gneE6"/>
    </vehicle>
    <vehicle id="1.49" depart="73.50">
        <route edges="gneE31 gneE29 gneE25 gneE6"/>
    </vehicle>
    <vehicle id="0.50" depart="75.00">
        <route edges="gneE3 gneE24 -gneE26 gneE25 gneE6"/>
    </vehicle>
    <vehicle id="1.50" depart="75.00">
        <route edges="gneE31 gneE29 gneE25 gneE6"/>
    </vehicle>
    <vehicle id="0.51" depart="76.50">
        <route edges="gneE3 gneE24 gneE27 gneE32"/>
    </vehicle>
    <vehicle id="1.51" depart="76.50">
        <route edges="gneE31 gneE29 gneE25 gneE6"/>
    </vehicle>
    <vehicle id="2.11" depart="77.00">
        <route edges="-gneE22 gneE15 gneE16 gneE17 gneE1 gneE2 gneE5 gneE6"/>
    </vehicle>
    <vehicle id="0.52" depart="78.00">
        <route edges="gneE3 gneE24 gneE27 gneE32"/>
    </vehicle>
    <vehicle id="1.52" depart="78.00">
        <route edges="gneE31 gneE30 gneE28 gneE19 gneE20 gneE18 -gneE16 -gneE15 -gneE21 -gneE19 -gneE28 -gneE30 gneE29 gneE25 gneE6"/>
    </vehicle>
    <vehicle id="0.53" depart="79.50">
        <route edges="gneE3 gneE24 gneE27 gneE28 gneE19 gneE21 gneE22"/>
    </vehicle>
    <vehicle id="1.53" depart="79.50">
        <route edges="gneE31 gneE29 gneE25 gneE6"/>
    </vehicle>
    <vehicle id="0.54" depart="81.00">
        <route edges="gneE3 -gneE2 -gneE1 -gneE17 -gneE16 -gneE15 gneE22"/>
    </vehicle>
    <vehicle id="1.54" depart="81.00">
        <route edges="gneE31 gneE29 gneE25 gneE6"/>
    </vehicle>
    <vehicle id="0.55" depart="82.50">
        <route edges="gneE3 gneE24 gneE27 gneE32"/>
    </vehicle>
    <vehicle id="1.55" depart="82.50">
        <route edges="gneE31 gneE29 gneE25 gneE6"/>
    </vehicle>
    <vehicle id="0.56" depart="84.00">
        <route edges="gneE3 -gneE2 -gneE1 -gneE17 -gneE16 -gneE15 gneE22"/>
    </vehicle>
    <vehicle id="1.56" depart="84.00">
        <route edges="gneE31 gneE29 gneE25 gneE6"/>
    </vehicle>
    <vehicle id="2.12" depart="84.00">
        <route edges="-gneE22 -gneE21 gneE20 gneE18 -gneE16 -gneE15 gneE22"/>
    </vehicle>
    <vehicle id="0.57" depart="85.50">
        <route edges="gneE3 gneE24 gneE23 -gneE8 -gneE7 gneE0 -gneE17 -gneE16 -gneE15 -gneE21 -gneE19 -gneE28 -gneE30 gneE29 gneE26 gneE27 gneE32"/>
    </vehicle>
    <vehicle id="1.57" depart="85.50">
        <route edges="gneE31 gneE29 gneE25 gneE6"/>
    </vehicle>
    <vehicle id="0.58" depart="87.00">
        <route edges="gneE3 gneE24 gneE27 gneE32"/>
    </vehicle>
    <vehicle id="1.58" depart="87.00">
        <route edges="gneE31 gneE29 gneE25 gneE6"/>
    </vehicle>
    <vehicle id="0.59" depart="88.50">
        <route edges="gneE3 gneE24 gneE27 gneE32"/>
    </vehicle>
    <vehicle id="1.59" depart="88.50">
        <route edges="gneE31 gneE29 gneE25 gneE6"/>
    </vehicle>
    <vehicle id="0.60" depart="90.00">
        <route edges="gneE3 -gneE2 -gneE1 -gneE17 -gneE16 -gneE15 gneE22"/>
    </vehicle>
    <vehicle id="1.60" depart="90.00">
        <route edges="gneE31 gneE29 gneE25 gneE6"/>
    </vehicle>
    <vehicle id="2.13" depart="91.00">
        <route edges="-gneE22 gneE15 gneE16 gneE17 gneE1 gneE2 gneE5 gneE6"/>
    </vehicle>
    <vehicle id="0.61" depart="91.50">
        <route edges="gneE3 gneE24 gneE27 gneE28 gneE19 gneE21 gneE15 gneE16 gneE17 gneE1 gneE2 gneE5 gneE6"/>
    </vehicle>
    <vehicle id="1.61" depart="91.50">
        <route edges="gneE31 gneE29 gneE25 gneE6"/>
    </vehicle>
    <vehicle id="0.62" depart="93.00">
        <route edges="gneE3 gneE24 gneE27 gneE32"/>
    </vehicle>
    <vehicle id="1.62" depart="93.00">
        <route edges="gneE31 gneE29 gneE25 gneE6"/>
    </vehicle>
    <vehicle id="0.63" depart="94.50">
        <route edges="gneE3 gneE24 -gneE26 gneE25 gneE6"/>
    </vehicle>
    <vehicle id="1.63" depart="94.50">
        <route edges="gneE31 gneE29 gneE25 gneE6"/>
    </vehicle>
    <vehicle id="0.64" depart="96.00">
        <route edges="gneE3 gneE24 -gneE26 gneE25 gneE6"/>
    </vehicle>
    <vehicle id="1.64" depart="96.00">
        <route edges="gneE31 gneE29 gneE25 gneE6"/>
    </vehicle>
    <vehicle id="0.65" depart="97.50">
        <route edges="gneE3 -gneE2 -gneE1 -gneE17 -gneE16 -gneE15 -gneE21 -gneE19 -gneE28 -gneE30 gneE29 gneE25 gneE6"/>
    </vehicle>
    <vehicle id="1.65" depart="97.50">
        <route edges="gneE31 gneE29 gneE26 gneE27 gneE28 gneE19 gneE21 gneE15 gneE16 gneE17 gneE1 gneE2 gneE24 gneE23 gneE9 gneE10 gneE11 gneE7 gneE8 -gneE23 -gneE26 gneE25 gneE6"/>
    </vehicle>
    <vehicle id="2.14" depart="98.00">
        <route edges="-gneE22 -gneE21 -gneE19 -gneE28 -gneE30 gneE29 gneE25 gneE6"/>
    </vehicle>
    <vehicle id="0.66" depart="99.00">
        <route edges="gneE3 gneE24 gneE27 gneE32"/>
    </vehicle>
    <vehicle id="1.66" depart="99.00">
        <route edges="gneE31 gneE29 gneE25 gneE6"/>
    </vehicle>
    <vehicle id="0.67" depart="100.50">
        <route edges="gneE3 gneE24 gneE27 gneE32"/>
    </vehicle>
    <vehicle id="1.67" depart="100.50">
        <route edges="gneE31 gneE29 gneE25 gneE6"/>
    </vehicle>
    <vehicle id="0.68" depart="102.00">
        <route edges="gneE3 gneE24 gneE27 gneE32"/>
    </vehicle>
    <vehicle id="1.68" depart="102.00">
        <route edges="gneE31 gneE29 gneE25 gneE6"/>
    </vehicle>
    <vehicle id="0.69" depart="103.50">
        <route edges="gneE3 gneE24 gneE27 gneE32"/>
    </vehicle>
    <vehicle id="1.69" depart="103.50">
        <route edges="gneE31 gneE29 gneE25 gneE6"/>
    </vehicle>
    <vehicle id="0.70" depart="105.00">
        <route edges="gneE3 -gneE2 -gneE1 -gneE17 -gneE16 -gneE15 gneE22"/>
    </vehicle>
    <vehicle id="1.70" depart="105.00">
        <route edges="gneE31 gneE30 gneE32"/>
    </vehicle>
    <vehicle id="2.15" depart="105.00">
        <route edges="-gneE22 -gneE21 -gneE19 -gneE28 -gneE30 gneE29 gneE25 gneE6"/>
    </vehicle>
    <vehicle id="0.71" depart="106.50">
        <route edges="gneE3 gneE24 gneE27 gneE28 gneE19 gneE21 gneE22"/>
    </vehicle>
    <vehicle id="1.71" depart="106.50">
        <route edges="gneE31 gneE29 gneE25 gneE6"/>
    </vehicle>
    <vehicle id="0.72" depart="108.00">
        <route edges="gneE3 gneE24 -gneE26 gneE25 gneE6"/>
    </vehicle>
    <vehicle id="1.72" depart="108.00">
        <route edges="gneE31 gneE29 gneE25 gneE6"/>
    </vehicle>
    <vehicle id="0.73" depart="109.50">
        <route edges="gneE3 -gneE2 -gneE1 -gneE17 -gneE16 -gneE15 gneE22"/>
    </vehicle>
    <vehicle id="1.73" depart="109.50">
        <route edges="gneE31 gneE29 gneE26 gneE23 gneE9 gneE10 gneE12"/>
    </vehicle>
    <vehicle id="0.74" depart="111.00">
        <route edges="gneE3 gneE24 gneE27 gneE32"/>
    </vehicle>
    <vehicle id="1.74" depart="111.00">
        <route edges="gneE31 gneE29 gneE25 gneE6"/>
    </vehicle>
    <vehicle id="2.16" depart="112.00">
        <route edges="-gneE22 gneE15 gneE16 gneE17 gneE1 gneE2 gneE5 gneE6"/>
    </vehicle>
    <vehicle id="0.75" depart="112.50">
        <route edges="gneE3 gneE24 gneE27 gneE28 gneE19 gneE20 gneE18 -gneE16 -gneE15 -gneE21 -gneE19 -gneE28 gneE32"/>
    </vehicle>
    <vehicle id="1.75" depart="112.50">
        <route edges="gneE31 gneE29 gneE25 gneE6"/>
    </vehicle>
    <vehicle id="0.76" depart="114.00">
        <route edges="gneE3 gneE24 gneE27 -gneE30 gneE29 gneE25 gneE6"/>
    </vehicle>
    <vehicle id="1.76" depart="114.00">
        <route edges="gneE31 gneE29 gneE25 gneE6"/>
    </vehicle>
    <vehicle id="0.77" depart="115.50">
        <route edges="gneE3 gneE24 gneE23 gneE9 gneE10 gneE13 -gneE28 gneE32"/>
    </vehicle>
    <vehicle id="1.77" depart="115.50">
        <route edges="gneE31 gneE29 gneE25 gneE6"/>
    </vehicle>
    <vehicle id="0.78" depart="117.00">
        <route edges="gneE3 gneE24 gneE27 gneE28 gneE19 gneE21 gneE15 gneE16 gneE17 gneE1 gneE2 gneE5 gneE6"/>
    </vehicle>
    <vehicle id="1.78" depart="117.00">
        <route edges="gneE31 gneE29 gneE25 gneE6"/>
    </vehicle>
    <vehicle id="0.79" depart="118.50">
        <route edges="gneE3 gneE24 gneE27 gneE28 gneE19 gneE20 gneE18 -gneE16 -gneE15 -gneE21 -gneE19 -gneE28 gneE32"/>
    </vehicle>
    <vehicle id="1.79" depart="118.50">
        <route edges="gneE31 gneE29 gneE26 gneE27 gneE32"/>
    </vehicle>
    <vehicle id="2.17" depart="119.00">
        <route edges="-gneE22 -gneE21 gneE20 gneE18 -gneE16 -gneE15 gneE22"/>
    </vehicle>
    <vehicle id="0.80" depart="120.00">
        <route edges="gneE3 -gneE2 -gneE1 -gneE17 -gneE16 -gneE15 -gneE21 -gneE19 -gneE13 gneE12"/>
    </vehicle>
    <vehicle id="1.80" depart="120.00">
        <route edges="gneE31 gneE29 gneE25 gneE6"/>
    </vehicle>
    <vehicle id="0.81" depart="121.50">
        <route edges="gneE3 gneE24 -gneE26 gneE25 gneE6"/>
    </vehicle>
    <vehicle id="1.81" depart="121.50">
        <route edges="gneE31 gneE30 gneE28 gneE19 gneE21 gneE15 gneE16 gneE17 gneE1 gneE2 gneE24 gneE27 gneE32"/>
    </vehicle>
    <vehicle id="0.82" depart="123.00">
        <route edges="gneE3 gneE24 gneE27 gneE32"/>
    </vehicle>
    <vehicle id="1.82" depart="123.00">
        <route edges="gneE31 gneE29 gneE25 gneE6"/>
    </vehicle>
    <vehicle id="0.83" depart="124.50">
        <route edges="gneE3 -gneE2 -gneE1 -gneE17 -gneE16 -gneE15 -gneE21 -gneE19 -gneE28 -gneE30 gneE29 gneE25 gneE6"/>
    </vehicle>
    <vehicle id="1.83" depart="124.50">
        <route edges="gneE31 gneE29 gneE25 gneE6"/>
    </vehicle>
    <vehicle id="0.84" depart="126.00">
        <route edges="gneE3 -gneE2 -gneE1 -gneE17 -gneE16 -gneE15 gneE22"/>
    </vehicle>
    <vehicle id="1.84" depart="126.00">
        <route edges="gneE31 gneE29 gneE25 gneE6"/>
    </vehicle>
    <vehicle id="2.18" depart="126.00">
        <route edges="-gneE22 -gneE21 gneE20 gneE18 -gneE16 -gneE15 gneE22"/>
    </vehicle>
    <vehicle id="0.85" depart="127.50">
        <route edges="gneE3 -gneE2 -gneE1 -gneE17 -gneE16 -gneE15 -gneE21 gneE20 gneE18 gneE17 gneE1 gneE2 gneE5 gneE6"/>
    </vehicle>
    <vehicle id="1.85" depart="127.50">
        <route edges="gneE31 gneE29 gneE25 gneE6"/>
    </vehicle>
    <vehicle id="0.86" depart="129.00">
        <route edges="gneE3 gneE24 gneE23 gneE9 gneE10 gneE12"/>
    </vehicle>
    <vehicle id="1.86" depart="129.00">
        <route edges="gneE31 gneE29 gneE25 gneE6"/>
    </vehicle>
    <vehicle id="0.87" depart="130.50">
        <route edges="gneE3 gneE24 gneE27 gneE32"/>
    </vehicle>
    <vehicle id="1.87" depart="130.50">
        <route edges="gneE31 gneE29 gneE25 gneE6"/>
    </vehicle>
    <vehicle id="0.88" depart="132.00">
        <route edges="gneE3 gneE24 gneE23 -gneE8 -gneE7 gneE0 gneE1 gneE2 gneE5 gneE6"/>
    </vehicle>
    <vehicle id="1.88" depart="132.00">
        <route edges="gneE31 gneE29 gneE25 gneE6"/>
    </vehicle>
    <vehicle id="2.19" depart="133.00">
        <route edges="-gneE22 -gneE21 -gneE19 -gneE28 -gneE30 gneE29 gneE25 gneE6"/>
    </vehicle>
    <vehicle id="0.89" depart="133.50">
        <route edges="gneE3 gneE24 gneE27 gneE32"/>
    </vehicle>
    <vehicle id="1.89" depart="133.50">
        <route edges="gneE31 gneE29 gneE25 gneE6"/>
    </vehicle>
    <vehicle id="0.90" depart="135.00">
        <route edges="gneE3 gneE24 gneE27 gneE32"/>
    </vehicle>
    <vehicle id="1.90" depart="135.00">
        <route edges="gneE31 gneE29 gneE25 gneE6"/>
    </vehicle>
    <vehicle id="0.91" depart="136.50">
        <route edges="gneE3 gneE24 gneE27 gneE32"/>
    </vehicle>
    <vehicle id="1.91" depart="136.50">
        <route edges="gneE31 gneE29 gneE25 gneE6"/>
    </vehicle>
    <vehicle id="0.92" depart="138.00">
        <route edges="gneE3 gneE24 gneE27 gneE32"/>
    </vehicle>
    <vehicle id="1.92" depart="138.00">
        <route edges="gneE31 gneE29 gneE25 gneE6"/>
    </vehicle>
    <vehicle id="0.93" depart="139.50">
        <route edges="gneE3 -gneE2 -gneE1 -gneE17 -gneE16 -gneE15 -gneE21 -gneE19 -gneE28 gneE32"/>
    </vehicle>
    <vehicle id="1.93" depart="139.50">
        <route edges="gneE31 gneE29 gneE25 gneE6"/>
    </vehicle>
    <vehicle id="2.20" depart="140.00">
        <route edges="-gneE22 gneE15 gneE16 gneE17 gneE1 gneE2 gneE5 gneE6"/>
    </vehicle>
    <vehicle id="0.94" depart="141.00">
        <route edges="gneE3 gneE24 -gneE26 gneE25 gneE6"/>
    </vehicle>
    <vehicle id="1.94" depart="141.00">
        <route edges="gneE31 gneE29 gneE25 gneE6"/>
    </vehicle>
    <vehicle id="0.95" depart="142.50">
        <route edges="gneE3 gneE24 gneE27 gneE32"/>
    </vehicle>
    <vehicle id="1.95" depart="142.50">
        <route edges="gneE31 gneE29 gneE25 gneE6"/>
    </vehicle>
    <vehicle id="0.96" depart="144.00">
        <route edges="gneE3 gneE24 -gneE26 gneE25 gneE6"/>
    </vehicle>
    <vehicle id="1.96" depart="144.00">
        <route edges="gneE31 gneE29 gneE25 gneE6"/>
    </vehicle>
    <vehicle id="0.97" depart="145.50">
        <route edges="gneE3 gneE24 gneE27 gneE32"/>
    </vehicle>
    <vehicle id="1.97" depart="145.50">
        <route edges="gneE31 gneE30 gneE32"/>
    </vehicle>
    <vehicle id="0.98" depart="147.00">
        <route edges="gneE3 gneE24 gneE27 -gneE30 gneE29 gneE25 gneE6"/>
    </vehicle>
    <vehicle id="1.98" depart="147.00">
        <route edges="gneE31 gneE29 gneE25 gneE6"/>
    </vehicle>
    <vehicle id="2.21" depart="147.00">
        <route edges="-gneE22 gneE15 gneE16 gneE17 gneE1 gneE2 gneE5 gneE6"/>
    </vehicle>
    <vehicle id="0.99" depart="148.50">
        <route edges="gneE3 -gneE2 -gneE1 -gneE17 -gneE16 -gneE15 gneE22"/>
    </vehicle>
    <vehicle id="1.99" depart="148.50">
        <route edges="gneE31 gneE29 gneE25 gneE6"/>
    </vehicle>
    <vehicle id="0.100" depart="150.00">
        <route edges="gneE3 -gneE2 -gneE1 -gneE17 -gneE16 -gneE15 gneE22"/>
    </vehicle>
    <vehicle id="1.100" depart="150.00">
        <route edges="gneE31 gneE29 gneE25 gneE6"/>
    </vehicle>
    <vehicle id="0.101" depart="151.50">
        <route edges="gneE3 gneE24 gneE27 gneE28 -gneE13 gneE12"/>
    </vehicle>
    <vehicle id="1.101" depart="151.50">
        <route edges="gneE31 gneE29 gneE25 gneE6"/>
    </vehicle>
    <vehicle id="0.102" depart="153.00">
        <route edges="gneE3 -gneE2 -gneE1 -gneE17 -gneE16 -gneE15 gneE22"/>
    </vehicle>
    <vehicle id="1.102" depart="153.00">
        <route edges="gneE31 gneE30 gneE28 gneE19 gneE21 gneE22"/>
    </vehicle>
    <vehicle id="2.22" depart="154.00">
        <route edges="-gneE22 gneE15 gneE16 gneE17 gneE1 gneE2 gneE5 gneE6"/>
    </vehicle>
    <vehicle id="0.103" depart="154.50">
        <route edges="gneE3 gneE24 gneE27 gneE32"/>
    </vehicle>
    <vehicle id="1.103" depart="154.50">
        <route edges="gneE31 gneE29 gneE25 gneE6"/>
    </vehicle>
    <vehicle id="0.104" depart="156.00">
        <route edges="gneE3 gneE24 gneE27 gneE32"/>
    </vehicle>
    <vehicle id="1.104" depart="156.00">
        <route edges="gneE31 gneE29 gneE25 gneE6"/>
    </vehicle>
    <vehicle id="0.105" depart="157.50">
        <route edges="gneE3 gneE24 gneE27 gneE28 gneE19 gneE21 gneE15 gneE16 gneE17 gneE1 gneE2 gneE5 gneE6"/>
    </vehicle>
    <vehicle id="1.105" depart="157.50">
        <route edges="gneE31 gneE29 gneE26 gneE27 gneE32"/>
    </vehicle>
    <vehicle id="0.106" depart="159.00">
        <route edges="gneE3 gneE24 -gneE26 gneE25 gneE6"/>
    </vehicle>
    <vehicle id="1.106" depart="159.00">
        <route edges="gneE31 gneE29 gneE25 gneE6"/>
    </vehicle>
    <vehicle id="0.107" depart="160.50">
        <route edges="gneE3 gneE24 -gneE26 gneE25 gneE6"/>
    </vehicle>
    <vehicle id="1.107" depart="160.50">
        <route edges="gneE31 gneE29 gneE25 gneE6"/>
    </vehicle>
    <vehicle id="2.23" depart="161.00">
        <route edges="-gneE22 -gneE21 -gneE19 -gneE28 gneE32"/>
    </vehicle>