<?xml version="1.0" encoding="UTF-8"?>

<!-- generated on 12/23/20 02:33:50 by Eclipse SUMO GUI Version 1.7.0
-->

<configuration xmlns:xsi="http://www.w3.org/2001/XMLSchema-instance" xsi:noNamespaceSchemaLocation="http://sumo.dlr.de/xsd/sumoConfiguration.xsd">

    <input>
        <net-file value="ntust.net.xml"/>
        <route-files value="ntust.rou.xml"/>
    </input>

</configuration>
