<?xml version="1.0" encoding="UTF-8"?>

<!-- generated on 04/17/20 01:46:37 by Eclipse SUMO polyconvert Version 1.5.0
<configuration xmlns:xsi="http://www.w3.org/2001/XMLSchema-instance" xsi:noNamespaceSchemaLocation="http://sumo.dlr.de/xsd/polyconvertConfiguration.xsd">

    <input>
        <net-file value="osm.net.xml"/>
        <osm-files value="osm_bbox.osm.xml"/>
        <osm.keep-full-type value="true"/>
        <type-file value="C:\Program%20Files%20(x86)\Eclipse\Sumo\data\typemap\osmPolyconvert.typ.xml"/>
    </input>

    <output>
        <output-file value="osm.poly.xml"/>
    </output>

    <processing>
        <poi-layer-offset value="5"/>
    </processing>

    <report>
        <verbose value="true"/>
    </report>

</configuration>
-->

<additional xmlns:xsi="http://www.w3.org/2001/XMLSchema-instance" xsi:noNamespaceSchemaLocation="http://sumo.dlr.de/xsd/additional_file.xsd">
    <location netOffset="-390507.27,-5820112.10" convBoundary="-7074.24,-4731.25,2502.23,3147.09" origBoundary="13.282814,52.477280,13.423389,52.548335" projParameter="+proj=utm +zone=33 +ellps=WGS84 +datum=WGS84 +units=m +no_defs"/>

    <poly id="104991245" type="building.yes" color="255,230,230" fill="1" layer="-1.00" shape="526.964732,276.735902 539.767457,272.534108 541.631383,278.212250 542.069381,278.068973 547.500748,294.606229 548.329748,294.342977 552.472213,306.947469 551.603005,307.233869 557.042086,323.815472 543.309472,328.316106 540.520887,319.820985 539.928097,320.023344 537.015760,311.152638 537.608551,310.950279 534.011482,299.980556 533.465683,300.159615 530.589472,291.388257 531.202618,291.185444 529.775676,286.844028 528.414243,282.701452 528.865561,282.546751 526.964732,276.735902"/>
    <poly id="104991246" type="building.yes" color="255,230,230" fill="1" layer="-1.00" shape="430.129163,320.687073 428.846640,317.043509 444.066434,311.663733 445.360534,315.218021 430.129163,320.687073"/>
    <poly id="105733615" type="building.yes" color="255,230,230" fill="1" layer="-1.00" shape="151.712482,343.665160 153.146913,325.528393 166.067248,326.308181 164.362163,345.396838 151.712482,343.665160"/>
    <poly id="105733616" type="building.residential" color="255,230,230" fill="1" layer="-1.00" shape="98.092976,341.891604 97.897871,344.399692 97.703014,346.918902 96.208043,346.841022 76.049727,345.032477 66.977209,344.222581 61.230035,343.694476 59.400406,343.523937 52.225103,342.871970 44.848065,338.964108 47.392495,334.066695 47.866560,334.323164 50.182472,328.918986 56.433016,332.228880 60.329723,332.564651 81.621034,334.347819 82.198972,327.101910 82.798831,319.621829 82.994427,317.135985 84.191157,317.231652 96.633838,318.199973 98.559445,318.412893 100.064439,318.635210 99.841946,321.132782 99.619951,323.652598 98.130762,323.530077 97.869155,326.707312 97.783965,327.755218 96.624394,341.779751 98.092976,341.891604"/>
    <poly id="105733634" type="building.hotel" color="255,230,230" fill="1" layer="-1.00" shape="186.794341,290.348189 181.413713,289.822888 179.699150,313.963713 167.164814,312.841440 157.074398,312.042973 135.116372,310.496917 133.490803,308.218661 136.254723,275.152232 138.219283,273.461465 178.134002,276.687544 188.105350,277.622246 188.001359,278.436888 186.794341,290.348189"/>
    <poly id="105733641" type="building.yes" color="255,230,230" fill="1" layer="-1.00" shape="208.163778,279.811831 203.134095,279.501227 188.001359,278.436888 186.794341,290.348189 186.691673,290.917993 208.446900,292.802639 209.385086,281.921089 208.163778,279.811831"/>
    <poly id="105733649" type="building.office" color="255,230,230" fill="1" layer="-1.00" shape="74.675688,244.046033 74.936120,243.550596 75.327440,243.141256 75.781558,242.808406 76.292185,242.574444 76.838970,242.439822 77.401559,242.404997 77.959850,242.481545 78.493240,242.658798 78.981377,242.937211 89.469311,253.318707 102.337828,266.050625 102.549799,266.424231 102.694674,266.832719 102.772205,267.264967 100.315863,297.075267 99.012359,312.861188 98.559445,318.412893 96.633838,318.199973 84.191157,317.231652 82.994427,317.135985 83.158116,315.652345 63.096278,305.106458 65.951147,299.823777 52.646739,290.974131 50.965566,289.854423 50.758811,289.714383 58.485955,274.964426 74.675688,244.046033"/>
    <poly id="105733655" type="building.yes" color="255,230,230" fill="1" layer="-1.00" shape="153.146913,325.528393 153.965585,314.771901 156.741433,315.066009 157.074398,312.042973 167.164814,312.841440 166.067248,326.308181 153.146913,325.528393"/>
    <poly id="11548677" type="natural.water" color="181,209,209" fill="0" layer="-4.00" shape="1652.014310,-800.545704 1622.134228,-817.602882 1489.432724,-887.442069 1481.918595,-894.464802 1471.514785,-901.991312 1468.810386,-903.945766 1452.418145,-915.802334 1410.607948,-944.256830 1358.412114,-970.456541 1346.069963,-975.046845 1323.990980,-983.071984 1317.330116,-986.485730 1314.926914,-987.400763 1293.303979,-991.986292 1230.251272,-999.740177 1184.714999,-997.643173 1163.926679,-995.792595 1159.660288,-994.997216 1157.128969,-994.028779 1154.073720,-992.191931 1151.125527,-989.812197 1149.023501,-987.851767 1147.430170,-985.913714 1146.172689,-984.138874 1127.737387,-948.656995 1120.090947,-934.010868 1006.142581,-738.113534 1003.104699,-733.049966 1000.608813,-728.343355 947.354792,-622.141341 932.760052,-580.745935 894.799676,-484.830229 886.757216,-468.516883 808.606850,-317.139289 803.885184,-279.990675 775.868416,-174.257368 755.587532,-119.137125 756.375941,-117.563379 756.451725,-115.372919 743.296732,-94.272177 741.513972,-94.466271 732.432460,-78.229698 678.399363,-38.861714 595.914645,60.438644 584.940655,73.646374 572.666811,88.529932 560.545478,102.942770 501.825139,174.320068 504.488071,176.553099 494.927460,188.283002 492.231599,186.095219 489.959060,190.118373 484.568603,192.508400"/>
    <poly id="120456813" type="landuse.commercial" color="255,230,230" fill="1" layer="-3.00" shape="295.564043,202.694742 299.483915,146.835471 230.586626,139.125056 230.387876,142.690345 229.983344,149.809953 229.777562,153.364272 229.157907,163.315109 230.316198,163.511819 229.175286,179.305186 228.227918,191.299700 227.459313,191.227827 226.940859,200.542130 258.688067,201.525292 283.370321,201.942909 295.564043,202.694742"/>
    <poly id="145662520" type="waterway.canal" color="181,209,209" fill="0" layer="-4.00" shape="758.553038,-100.219236 738.273862,-74.086405 691.408443,-35.345085 637.645369,29.878009 590.911606,85.754001 581.155236,97.855285 526.783327,163.037614 506.623102,187.700001 461.873621,243.544311"/>
    <poly id="158844339" type="building.yes" color="255,230,230" fill="1" layer="-1.00" shape="390.525072,71.797816 388.453831,95.824062 420.320216,98.474787 446.016930,161.196639 463.912817,154.043697 431.831643,75.284323 390.525072,71.797816"/>
    <poly id="159534658" type="waterway.river" color="181,209,209" fill="0" layer="-4.00" shape="1540.977078,-628.260254 1508.520571,-623.639101 1450.269862,-599.509762 1398.291526,-584.954304 1344.989546,-546.422530 1307.023369,-507.594612 1270.275222,-466.512134 1221.698638,-397.649397 1200.729172,-364.192540 1106.669388,-204.411784 1088.955782,-173.285334 1058.669106,-123.542175 1031.164954,-72.625262 999.705695,-23.167293 961.986528,25.884372 948.939163,45.735872 932.674295,71.089009 909.910072,95.050693 872.402851,122.666625 804.969816,151.525570 765.358752,166.881893 717.584501,186.303402 642.963564,215.702644 553.471692,231.357373 535.398857,233.295064 461.873621,243.544311 374.407805,256.264047 339.987415,254.093433 225.094655,243.435995 204.105747,240.922144 146.162369,230.676207 121.840028,220.536781 50.142075,154.905100 -18.540792,94.882107 -55.358722,62.366978 -82.440019,38.191449 -120.908135,11.444470 -179.836625,-18.382691 -275.488152,-62.108196 -370.803915,-90.483177 -408.917734,-91.642176 -455.336450,-92.937152 -482.393385,-88.690903 -503.308560,-85.417025 -524.149757,-78.850911 -544.485529,-70.638031 -568.193942,-58.154117 -586.949849,-47.005453 -605.475265,-33.458304 -622.968959,-18.710228 -642.795740,3.968821 -651.668646,21.427491 -653.066901,25.353647 -658.626134,40.145043 -661.403966,52.448038 -662.937730,64.834331 -663.576863,73.839922 -667.116640,107.792394 -670.916065,132.915284 -677.034992,161.439810 -687.815653,184.894826 -695.597497,201.950707 -702.075734,210.876268 -706.247321,217.034761 -720.073666,233.024911 -738.944665,253.168028 -760.955084,270.433050 -790.375546,293.807271 -822.859110,313.166793 -856.556382,330.161422 -883.755645,338.819787 -912.547441,344.876930 -944.807528,349.732768"/>
    <poly id="165015473" type="amenity.events_venue" color="237,199,199" fill="1" layer="-1.00" shape="589.830255,297.181029 609.702646,291.019524 619.222478,321.720459 599.485143,327.845543 596.667466,328.720519 590.408427,308.529498 593.143965,307.622963 591.184601,301.312650 589.830255,297.181029"/>
    <poly id="183649400" type="landuse.construction" color="194,194,130" fill="1" layer="-3.00" shape="763.064470,115.823630 767.603007,118.771837 778.835515,125.143414 782.078357,128.431971 786.436282,138.839715 783.815101,140.622682 711.182513,166.994502 702.467959,160.611654 704.775387,157.845252 726.543060,131.245196 731.211892,135.169708 737.852423,127.321914 747.385084,135.088740 763.064470,115.823630"/>
    <poly id="188033974" type="landuse.commercial" color="209,209,204" fill="1" layer="-3.00" shape="378.926282,199.512441 379.871520,199.591529 379.893453,199.357360 392.703934,200.373884 392.722988,199.705800 418.984765,196.683847 419.275800,197.256003 430.616286,193.832050 430.453657,193.234778 455.033513,183.262311 455.298893,183.901806 468.510500,178.544580 478.949610,165.726815 489.257151,152.789598 490.248200,153.401815 493.210475,150.175629 554.248702,75.274850 526.062740,56.217103 511.061180,46.736325 494.877471,39.040070 481.948412,33.018461 463.165514,25.046334 430.530871,17.482872 429.117899,22.310357 415.934164,21.012716 415.033407,15.313163 396.276897,13.104824 391.419732,62.597567 390.525072,71.797816 388.453831,95.824062 387.737888,100.858586 386.493167,115.062954 386.962030,115.085891 384.786340,141.429023 384.229035,141.396928 382.675848,159.424959 383.287672,159.466966 381.018295,185.867828 380.440394,185.825065 379.796810,192.582767 379.276616,198.480891 379.018072,198.453268 378.926282,199.512441"/>
    <poly id="188033975" type="landuse.residential" color="235,235,227" fill="1" layer="-3.00" shape="76.536192,240.432476 78.981377,242.937211 89.469311,253.318707 102.337828,266.050625 102.829937,266.506995 102.772205,267.264967 100.315863,297.075267 99.012359,312.861188 98.559445,318.412893 98.130762,323.530077 97.869155,326.707312 97.783965,327.755218 96.624394,341.779751 96.208043,346.841022 95.170476,359.338338 94.139451,371.824381 94.031849,373.084213 93.773802,376.116709 93.189893,383.095686 92.594407,390.163944 92.336611,393.207562 92.240590,394.378115 91.869329,399.026655 91.498069,403.675195 91.387908,405.124256 90.070903,404.808721 79.431850,402.231120 62.459493,398.103659 51.308132,395.381779 47.247312,394.382024 42.893288,393.322059 35.010819,391.395113 16.857046,386.949258 9.971231,385.278262 3.085412,383.607276 -3.281596,382.069359 -10.999796,380.205579 -13.579315,379.584474 -16.240740,378.942945 -16.184659,378.719137 -15.898960,377.533213 -15.693948,377.595394 -12.955153,366.217281 -12.702155,366.300645 -11.222400,364.787571 -9.006282,362.512476 -7.354521,359.281892 -1.392135,362.453495 9.254876,368.113119 15.171358,357.999302 16.115506,356.208891 21.841212,345.453943 24.636945,340.261579 26.999357,335.724309 32.088937,325.962831 40.797849,309.288061 45.881697,299.571239 48.192860,295.168659 50.965566,289.854423 50.758811,289.714383 58.485955,274.964426 74.675688,244.046033 76.536192,240.432476"/>
    <poly id="193380475" type="landuse.commercial" color="209,209,204" fill="1" layer="-3.00" shape="145.628231,55.059980 144.328634,73.160346 142.916564,87.134855 142.365786,87.091514 139.171326,132.196558 136.546478,164.202739 136.093995,169.776683 137.854099,175.646177 140.499606,179.826750 144.501700,183.053435 164.958876,191.532219 168.670194,192.072516 189.568740,195.088986 189.540107,193.197920 192.313788,193.391949 194.986697,193.632740 194.812960,195.884409 208.056455,197.747619 210.802294,156.847780 211.409336,147.854201 211.786537,141.336095 212.077112,137.323648 212.108643,132.348875 215.377715,124.931664 221.530947,102.883978 232.780365,73.467364 234.544840,68.887909 249.247951,32.406116 252.092654,22.694973 253.685656,10.730581 255.257300,0.547093 236.738074,1.071473 203.659130,3.434171 170.545967,7.912116 163.410088,9.351092 147.712961,14.664479 148.573084,21.266242 147.323786,33.412175 145.628231,55.059980"/>
    <poly id="193380476" type="landuse.commercial" color="209,209,204" fill="1" layer="-3.00" shape="24.964218,72.811371 115.048520,39.229373 119.457698,30.284396 122.710503,29.132368 122.525429,56.710889 120.009948,154.701779 111.214458,155.977607 24.964218,72.811371"/>
    <poly id="195397543" type="man_made.bridge" color="255,230,230" fill="1" layer="-1.00" shape="734.137226,205.153185 753.656520,194.070586 747.284817,191.096334 737.199722,185.956773 717.282519,173.624607 697.870781,159.912591 695.384630,162.883264 692.541275,166.273596 688.792200,170.752306 686.649946,173.314748 684.910908,175.389743 684.588005,176.131342 702.867184,188.054660 716.934392,196.455117 724.711961,200.688910 734.137226,205.153185"/>
    <poly id="195397545" type="building.viaduct" color="255,230,230" fill="1" layer="-1.00" shape="753.656520,194.070586 754.918895,194.676830 754.770892,195.347775 775.366001,203.369772 797.159843,209.440166 817.651042,213.703506 829.977465,215.855801 855.054343,218.470804 869.638513,218.981863 887.093748,219.796502 952.964141,221.518606 952.458630,223.210080 951.379144,226.872737 949.762695,232.338841 948.708132,235.900797 947.874746,238.723429 869.147468,235.706444 842.817106,235.022005 823.265585,232.417984 806.967373,230.520770 787.947166,226.169186 768.912953,220.271246 768.085892,220.011417 734.137226,205.153185 753.656520,194.070586"/>
    <poly id="195397546" type="man_made.bridge" color="255,230,230" fill="1" layer="-1.00" shape="520.811009,190.221821 518.224204,188.053854 504.488071,176.553099 501.825139,174.320068 497.146890,180.043652 492.231599,186.095219 494.927460,188.283002 505.379296,196.774462 508.794071,199.547145 511.026712,201.355777 516.112999,195.667636 520.811009,190.221821"/>
    <poly id="195397553" type="man_made.bridge" color="255,230,230" fill="1" layer="-1.00" shape="536.279570,256.710299 551.415299,253.335714 537.300581,215.960386 528.069532,218.402433 522.104472,219.981758 536.279570,256.710299"/>
    <poly id="195397557" type="building.viaduct" color="255,230,230" fill="1" layer="-1.00" shape="598.050574,107.349797 657.990746,153.376580 662.748168,157.009741 684.910908,175.389743 686.649946,173.314748 688.792200,170.752306 692.541275,166.273596 695.384630,162.883264 697.870781,159.912591 609.304065,92.366585 607.134817,95.241235 604.876277,98.373808 601.807113,102.292213 599.664269,105.132898 598.050574,107.349797"/>
    <poly id="281029362" type="man_made.pipeline" color="255,230,230" fill="0" layer="-1.00" shape="-174.327942,1142.737498 -32.923311,946.673104 64.730030,811.290960 67.276532,780.988967 73.930626,757.739162 81.640900,656.616420 113.000613,245.671344"/>
    <poly id="281029374" type="man_made.pipeline" color="255,230,230" fill="0" layer="-1.00" shape="214.856960,216.880124 218.975530,135.289140 266.656482,8.260258 291.424324,-346.474394 -22.873725,-373.029258 -27.641472,-373.434527 -163.422264,-384.895984 -385.914483,-403.678666"/>
    <poly id="30876915" type="leisure.sports_centre" color="207,245,201" fill="1" layer="-2.00" shape="688.317263,317.703307 686.917269,314.262590 685.129768,308.961040 678.576208,293.216392 677.357667,290.305772 676.851034,289.193138 668.766966,271.468408 667.254088,268.141481 665.034975,263.272380 663.989131,258.054503 662.584388,251.041926 688.925117,242.722905 689.773227,241.791596 733.829472,227.359648 750.760943,231.790787 762.995485,235.002078 772.650097,258.667622 764.812012,261.790465 765.536604,263.855244 747.148448,271.151548 745.896974,271.646700 743.367138,272.648728 732.292610,277.045283 739.358461,295.082040 739.977461,296.670673 688.317263,317.703307"/>
    <poly id="30876915#1" type="sport.swimming" color="79,230,125" fill="1" layer="-2.00" shape="688.317263,317.703307 686.917269,314.262590 685.129768,308.961040 678.576208,293.216392 677.357667,290.305772 676.851034,289.193138 668.766966,271.468408 667.254088,268.141481 665.034975,263.272380 663.989131,258.054503 662.584388,251.041926 688.925117,242.722905 689.773227,241.791596 733.829472,227.359648 750.760943,231.790787 762.995485,235.002078 772.650097,258.667622 764.812012,261.790465 765.536604,263.855244 747.148448,271.151548 745.896974,271.646700 743.367138,272.648728 732.292610,277.045283 739.358461,295.082040 739.977461,296.670673 688.317263,317.703307"/>
    <poly id="30876932" type="leisure.swimming_pool" color="207,245,201" fill="1" layer="-2.00" shape="700.077814,291.948599 698.669740,283.255814 711.121843,280.987342 711.164669,278.026440 722.839619,277.132834 725.222755,291.223126 700.077814,291.948599"/>
    <poly id="313659704" type="building.yes" color="255,230,230" fill="1" layer="-1.00" shape="611.495904,82.570040 626.904611,95.113293 629.375954,92.087277 683.689511,136.303241 681.548726,138.932418 704.775387,157.845252 726.543060,131.245196 731.211892,135.169708 737.852423,127.321914 747.385084,135.088740 763.064470,115.823630 753.891500,108.360360 760.637939,100.387845 754.550894,95.259627 777.081222,69.967071 779.380471,67.134124 760.709588,51.947688 754.232315,46.672346 752.811692,48.417544 701.491380,6.649161 703.129957,4.632043 686.172788,-9.167854 662.973951,19.333607 728.598469,73.424885 720.066204,83.506847 705.411294,71.580840 699.206776,79.196437 692.923089,86.913951 707.287856,98.612686 699.172470,108.206940 634.588546,54.204204 611.495904,82.570040"/>
    <poly id="313659704#1" type="tourism.museum" color="207,245,201" fill="1" layer="-2.00" shape="611.495904,82.570040 626.904611,95.113293 629.375954,92.087277 683.689511,136.303241 681.548726,138.932418 704.775387,157.845252 726.543060,131.245196 731.211892,135.169708 737.852423,127.321914 747.385084,135.088740 763.064470,115.823630 753.891500,108.360360 760.637939,100.387845 754.550894,95.259627 777.081222,69.967071 779.380471,67.134124 760.709588,51.947688 754.232315,46.672346 752.811692,48.417544 701.491380,6.649161 703.129957,4.632043 686.172788,-9.167854 662.973951,19.333607 728.598469,73.424885 720.066204,83.506847 705.411294,71.580840 699.206776,79.196437 692.923089,86.913951 707.287856,98.612686 699.172470,108.206940 634.588546,54.204204 611.495904,82.570040"/>
    <poly id="313659705" type="building.yes" color="255,230,230" fill="1" layer="-1.00" shape="534.141599,201.497961 535.820789,203.752896 536.630133,204.435931 538.448676,206.242661 541.089097,208.075616 539.802632,210.964043 541.145947,211.546178 541.593025,210.590381 541.874642,210.739903 542.546651,208.911145 545.977709,210.281407 549.403920,211.128780 552.545401,211.381597 554.607553,211.324595 557.044179,211.014457 557.149445,211.779923 565.991136,209.836209 571.199252,208.707752 571.512420,208.444851 571.776862,208.127395 571.784352,207.548591 626.054981,196.126644 626.186492,196.546571 635.496099,194.581455 640.150054,193.865986 639.981627,192.701327 640.562599,192.577137 640.578169,190.529305 670.001569,184.689904 672.659809,179.690163 671.888074,175.200619 667.599531,171.590414 669.433654,169.212852 659.632028,161.563429 662.748168,157.009741 657.990746,153.376580 654.839450,157.875415 639.834275,146.068665 637.864902,144.498931 638.272426,143.900108 622.486091,131.765815 621.964471,132.422814 620.685635,131.382991 590.237471,107.634809 589.960443,107.997054 589.478366,107.685072 588.974097,107.596137 588.326015,107.755208 579.506112,118.622760 579.383288,119.204129 579.504806,119.479618 579.782115,119.740514 544.351246,162.190516 543.890266,161.911452 542.692954,162.705897 533.961698,173.582694 534.740838,174.433316 532.945650,177.032616 531.803093,179.372588 530.619669,182.926384 530.146673,185.462884 530.006703,187.713784 527.581510,187.623086 527.578336,188.090518 526.778043,188.119453 526.797636,189.610122 530.044710,189.727043 530.544028,193.254525 531.541069,196.882210 532.922395,199.477601 534.141599,201.497961"/>
    <poly id="313659705#1" type="tourism.museum" color="207,245,201" fill="1" layer="-2.00" shape="534.141599,201.497961 535.820789,203.752896 536.630133,204.435931 538.448676,206.242661 541.089097,208.075616 539.802632,210.964043 541.145947,211.546178 541.593025,210.590381 541.874642,210.739903 542.546651,208.911145 545.977709,210.281407 549.403920,211.128780 552.545401,211.381597 554.607553,211.324595 557.044179,211.014457 557.149445,211.779923 565.991136,209.836209 571.199252,208.707752 571.512420,208.444851 571.776862,208.127395 571.784352,207.548591 626.054981,196.126644 626.186492,196.546571 635.496099,194.581455 640.150054,193.865986 639.981627,192.701327 640.562599,192.577137 640.578169,190.529305 670.001569,184.689904 672.659809,179.690163 671.888074,175.200619 667.599531,171.590414 669.433654,169.212852 659.632028,161.563429 662.748168,157.009741 657.990746,153.376580 654.839450,157.875415 639.834275,146.068665 637.864902,144.498931 638.272426,143.900108 622.486091,131.765815 621.964471,132.422814 620.685635,131.382991 590.237471,107.634809 589.960443,107.997054 589.478366,107.685072 588.974097,107.596137 588.326015,107.755208 579.506112,118.622760 579.383288,119.204129 579.504806,119.479618 579.782115,119.740514 544.351246,162.190516 543.890266,161.911452 542.692954,162.705897 533.961698,173.582694 534.740838,174.433316 532.945650,177.032616 531.803093,179.372588 530.619669,182.926384 530.146673,185.462884 530.006703,187.713784 527.581510,187.623086 527.578336,188.090518 526.778043,188.119453 526.797636,189.610122 530.044710,189.727043 530.544028,193.254525 531.541069,196.882210 532.922395,199.477601 534.141599,201.497961"/>
    <poly id="313659711" type="building.yes" color="255,230,230" fill="1" layer="-1.00" shape="576.305398,191.702419 590.222309,188.755665 587.260004,172.753223 571.121788,182.336955 576.305398,191.702419"/>
    <poly id="313659711#1" type="tourism.museum" color="207,245,201" fill="1" layer="-2.00" shape="576.305398,191.702419 590.222309,188.755665 587.260004,172.753223 571.121788,182.336955 576.305398,191.702419"/>
    <poly id="313659713" type="building.yes" color="255,230,230" fill="1" layer="-1.00" shape="600.712423,183.103237 622.752286,178.852073 624.307473,178.583819 622.745598,170.918213 620.202226,158.489543 617.408045,160.120660 606.529492,166.927834 598.429094,171.992983 600.712423,183.103237"/>
    <poly id="313659713#1" type="tourism.museum" color="207,245,201" fill="1" layer="-2.00" shape="600.712423,183.103237 622.752286,178.852073 624.307473,178.583819 622.745598,170.918213 620.202226,158.489543 617.408045,160.120660 606.529492,166.927834 598.429094,171.992983 600.712423,183.103237"/>
    <poly id="313659715" type="building.yes" color="255,230,230" fill="1" layer="-1.00" shape="636.467358,179.036807 650.002083,176.299018 647.942196,166.686010 639.975804,160.375663 637.727631,163.363332 633.546569,163.979269 636.467358,179.036807"/>
    <poly id="313659715#1" type="tourism.museum" color="207,245,201" fill="1" layer="-2.00" shape="636.467358,179.036807 650.002083,176.299018 647.942196,166.686010 639.975804,160.375663 637.727631,163.363332 633.546569,163.979269 636.467358,179.036807"/>
    <poly id="313659717" type="building.yes" color="255,230,230" fill="1" layer="-1.00" shape="576.405066,143.995989 585.427021,151.373272 600.918706,131.633303 592.234261,124.782614 589.171519,128.378184 590.919364,129.752527 591.308220,132.893003 584.175673,141.497497 581.076729,141.633181 579.533157,140.287681 576.405066,143.995989"/>
    <poly id="313659717#1" type="tourism.museum" color="207,245,201" fill="1" layer="-2.00" shape="576.405066,143.995989 585.427021,151.373272 600.918706,131.633303 592.234261,124.782614 589.171519,128.378184 590.919364,129.752527 591.308220,132.893003 584.175673,141.497497 581.076729,141.633181 579.533157,140.287681 576.405066,143.995989"/>
    <poly id="313659719" type="building.yes" color="255,230,230" fill="1" layer="-1.00" shape="561.349492,166.552762 566.508045,175.095328 582.396744,165.583897 569.986687,155.411045 568.936081,157.003410 561.349492,166.552762"/>
    <poly id="313659719#1" type="tourism.museum" color="207,245,201" fill="1" layer="-2.00" shape="561.349492,166.552762 566.508045,175.095328 582.396744,165.583897 569.986687,155.411045 568.936081,157.003410 561.349492,166.552762"/>
    <poly id="316995472" type="building.yes" color="255,230,230" fill="1" layer="-1.00" shape="197.275241,155.970122 191.837876,155.646368 171.625962,154.205813 172.268661,143.163939 178.579480,143.390281 179.084638,138.349295 187.597141,139.294314 198.333904,140.145197 198.155613,144.322054 196.265852,144.197314 195.731146,152.477110 197.559349,152.580968 197.275241,155.970122"/>
    <poly id="316995477" type="building.yes" color="255,230,230" fill="1" layer="-1.00" shape="197.275241,155.970122 197.559349,152.580968 195.731146,152.477110 196.265852,144.197314 198.155613,144.322054 198.333904,140.145197 211.786537,141.336095 211.409336,147.854201 210.802294,156.847780 197.275241,155.970122"/>
    <poly id="327516754" type="building.yes" color="255,230,230" fill="1" layer="-1.00" shape="270.801262,340.784983 276.819273,341.285037 276.970281,339.534625 279.397888,339.736419 282.142977,307.304802 271.733229,306.490966 271.060343,315.274580 270.699828,319.500008 269.619777,332.243027 269.061592,338.865315 270.952020,339.023448 270.801262,340.784983"/>
    <poly id="327516755" type="building.apartments" color="255,230,230" fill="1" layer="-1.00" shape="310.173809,344.992315 310.259061,343.031944 312.888201,343.140240 313.798538,320.953628 309.606819,320.780021 309.694145,318.608178 307.499915,318.523569 307.425504,320.361294 302.819460,320.174675 301.817549,344.644506 310.173809,344.992315"/>
    <poly id="327516756" type="building.yes" color="255,230,230" fill="1" layer="-1.00" shape="353.692927,309.893650 323.450880,308.498001 323.495840,306.861232 305.946357,305.772517 306.713522,289.342100 324.494398,289.847023 324.479301,291.605531 349.772867,292.977945 349.668980,295.016623 363.747691,295.693223 367.470662,303.766836 353.692927,309.893650"/>
    <poly id="327516757" type="building.yes" color="255,230,230" fill="1" layer="-1.00" shape="230.361335,281.441895 220.880196,335.021780 223.244683,335.436382 222.930877,337.190429 228.927387,338.247288 229.234412,336.493393 231.476288,336.888478 233.284440,326.666312 236.225818,310.042706 240.957538,283.308615 240.664580,283.259512 241.219490,280.142511 231.795361,278.483321 231.247241,281.600172 230.361335,281.441895"/>
    <poly id="327516758" type="building.yes" color="255,230,230" fill="1" layer="-1.00" shape="377.341459,362.334331 377.563163,362.841264 389.553076,357.511026 383.895154,344.840275 385.514989,344.125396 375.041719,320.656836 376.547223,319.989012 369.003059,303.087284 367.470662,303.766836 353.692927,309.893650 361.158545,326.619064 359.820911,327.205257 365.357638,339.611620 366.890023,338.932067 374.719881,356.472830 377.341459,362.334331"/>
    <poly id="327516759" type="building.yes" color="255,230,230" fill="1" layer="-1.00" shape="210.172903,334.559674 213.287360,335.124449 214.044277,331.023701 210.936354,330.447652 210.172903,334.559674"/>
    <poly id="327516761" type="building.yes" color="255,230,230" fill="1" layer="-1.00" shape="273.482890,284.207728 271.733229,306.490966 282.142977,307.304802 283.892685,285.021568 273.482890,284.207728"/>
    <poly id="327516766" type="building.yes" color="255,230,230" fill="1" layer="-1.00" shape="233.284440,326.666312 269.619777,332.243027 270.699828,319.500008 271.060343,315.274580 236.225818,310.042706 233.284440,326.666312"/>
    <poly id="330832907" type="leisure.playground" color="207,245,201" fill="1" layer="-2.00" shape="627.553079,287.940898 624.057859,287.039368 620.854323,285.519336 618.632997,283.910703 616.406970,282.090750 615.048180,279.895432 614.202756,277.588551 613.387016,274.479820 612.973623,271.150718 616.264980,265.324548 622.704019,263.389842 626.749774,267.072171 631.311159,261.584990 639.404638,261.405079 645.267955,265.937232 646.466530,271.307497 645.260748,275.384760 643.950981,279.364185 641.743184,282.028255 639.225655,284.498914 636.479278,286.140088 633.733012,287.480814 630.697333,288.015658 627.553079,287.940898"/>