<?xml version="1.0" encoding="UTF-8"?>

<!-- generated on 04/17/20 01:46:36 by Eclipse SUMO netconvert Version 1.5.0
<configuration xmlns:xsi="http://www.w3.org/2001/XMLSchema-instance" xsi:noNamespaceSchemaLocation="http://sumo.dlr.de/xsd/netconvertConfiguration.xsd">

    <input>
        <type-files value="C:\Program%20Files%20(x86)\Eclipse\Sumo\data\typemap\osmNetconvert.typ.xml"/>
        <osm-files value="osm_bbox.osm.xml"/>
    </input>

    <output>
        <output-file value="osm.net.xml"/>
        <output.street-names value="true"/>
        <output.original-names value="true"/>
    </output>

    <projection>
        <proj.utm value="true"/>
    </projection>

    <processing>
        <geometry.remove value="true"/>
        <roundabouts.guess value="true"/>
    </processing>

    <tls_building>
        <tls.discard-simple value="true"/>
        <tls.join value="true"/>
        <tls.guess-signals value="true"/>
        <tls.default-type value="actuated"/>
    </tls_building>

    <ramp_guessing>
        <ramps.guess value="true"/>
    </ramp_guessing>

    <junctions>
        <junctions.join value="true"/>
        <junctions.corner-detail value="5"/>
    </junctions>

    <report>
        <verbose value="true"/>
        <aggregate-warnings value="5"/>
    </report>

</configuration>
-->

<net version="1.3" junctionCornerDetail="5" limitTurnSpeed="5.50" xmlns:xsi="http://www.w3.org/2001/XMLSchema-instance" xsi:noNamespaceSchemaLocation="http://sumo.dlr.de/xsd/net_file.xsd">

    <location netOffset="-390507.27,-5820112.10" convBoundary="0.00,0.00,948.71,537.66" origBoundary="13.372213,52.514766,13.409154,52.524955" projParameter="+proj=utm +zone=33 +ellps=WGS84 +datum=WGS84 +units=m +no_defs"/>

    <type id="highway.bridleway" priority="1" numLanes="1" speed="2.78" allow="pedestrian" oneway="1" width="2.00"/>
    <type id="highway.bus_guideway" priority="1" numLanes="1" speed="27.78" allow="bus" oneway="1"/>
    <type id="highway.cycleway" priority="1" numLanes="1" speed="8.33" allow="bicycle" oneway="0" width="1.00"/>
    <type id="highway.footway" priority="1" numLanes="1" speed="2.78" allow="pedestrian" oneway="1" width="2.00"/>
    <type id="highway.ford" priority="1" numLanes="1" speed="2.78" allow="army" oneway="0"/>
    <type id="highway.living_street" priority="2" numLanes="1" speed="2.78" disallow="tram rail_urban rail rail_electric rail_fast ship" oneway="0"/>
    <type id="highway.motorway" priority="14" numLanes="2" speed="39.44" allow="private emergency authority army vip passenger hov taxi bus coach delivery truck trailer motorcycle evehicle custom1 custom2" oneway="1"/>
    <type id="highway.motorway_link" priority="9" numLanes="1" speed="22.22" allow="private emergency authority army vip passenger hov taxi bus coach delivery truck trailer motorcycle evehicle custom1 custom2" oneway="1"/>
    <type id="highway.path" priority="1" numLanes="1" speed="2.78" allow="pedestrian bicycle" oneway="1" width="2.00"/>
    <type id="highway.pedestrian" priority="1" numLanes="1" speed="2.78" allow="pedestrian" oneway="1" width="2.00"/>
    <type id="highway.primary" priority="12" numLanes="2" speed="27.78" disallow="tram rail_urban rail rail_electric rail_fast ship" oneway="0"/>
    <type id="highway.primary_link" priority="7" numLanes="1" speed="22.22" disallow="tram rail_urban rail rail_electric rail_fast ship" oneway="0"/>
    <type id="highway.raceway" priority="15" numLanes="2" speed="83.33" allow="vip" oneway="0"/>
    <type id="highway.residential" priority="3" numLanes="1" speed="13.89" disallow="tram rail_urban rail rail_electric rail_fast ship" oneway="0"/>
    <type id="highway.secondary" priority="11" numLanes="1" speed="27.78" disallow="tram rail_urban rail rail_electric rail_fast ship" oneway="0"/>
    <type id="highway.secondary_link" priority="6" numLanes="1" speed="22.22" disallow="tram rail_urban rail rail_electric rail_fast ship" oneway="0"/>
    <type id="highway.service" priority="1" numLanes="1" speed="5.56" allow="pedestrian delivery bicycle" oneway="0"/>
    <type id="highway.stairs" priority="1" numLanes="1" speed="1.39" allow="pedestrian" oneway="1" width="2.00"/>
    <type id="highway.step" priority="1" numLanes="1" speed="1.39" allow="pedestrian" oneway="1" width="2.00"/>
    <type id="highway.steps" priority="1" numLanes="1" speed="1.39" allow="pedestrian" oneway="1" width="2.00"/>
    <type id="highway.tertiary" priority="10" numLanes="1" speed="22.22" disallow="tram rail_urban rail rail_electric rail_fast ship" oneway="0"/>
    <type id="highway.tertiary_link" priority="5" numLanes="1" speed="22.22" disallow="tram rail_urban rail rail_electric rail_fast ship" oneway="0"/>
    <type id="highway.track" priority="1" numLanes="1" speed="5.56" disallow="tram rail_urban rail rail_electric rail_fast ship" oneway="0"/>
    <type id="highway.trunk" priority="13" numLanes="2" speed="27.78" disallow="pedestrian bicycle tram rail_urban rail rail_electric rail_fast ship" oneway="0"/>
    <type id="highway.trunk_link" priority="8" numLanes="1" speed="22.22" disallow="pedestrian bicycle tram rail_urban rail rail_electric rail_fast ship" oneway="0"/>
    <type id="highway.unclassified" priority="4" numLanes="1" speed="13.89" disallow="tram rail_urban rail rail_electric rail_fast ship" oneway="0"/>
    <type id="highway.unsurfaced" priority="1" numLanes="1" speed="8.33" disallow="tram rail_urban rail rail_electric rail_fast ship" oneway="0"/>
    <type id="railway.highspeed" priority="21" numLanes="1" speed="69.44" allow="rail_fast" oneway="1"/>
    <type id="railway.light_rail" priority="19" numLanes="1" speed="27.78" allow="rail_urban" oneway="1"/>
    <type id="railway.preserved" priority="16" numLanes="1" speed="27.78" allow="rail" oneway="1"/>
    <type id="railway.rail" priority="20" numLanes="1" speed="44.44" allow="rail" oneway="1"/>
    <type id="railway.subway" priority="18" numLanes="1" speed="27.78" allow="rail_urban" oneway="1"/>
    <type id="railway.tram" priority="17" numLanes="1" speed="13.89" allow="tram" oneway="1"/>

    <edge id=":1075544310_0" function="internal">
        <lane id=":1075544310_0_0" index="0" disallow="tram rail_urban rail rail_electric rail_fast ship" speed="3.65" length="4.67" shape="547.88,273.76 548.25,272.37 548.88,271.73 549.77,271.85 550.91,272.73"/>
    </edge>
    <edge id=":1217651535_0" function="internal">
        <lane id=":1217651535_0_0" index="0" allow="pedestrian delivery bicycle" speed="3.65" length="4.67" shape="595.00,107.66 593.62,108.10 592.75,107.91 592.37,107.10 592.50,105.66"/>
    </edge>
    <edge id=":1447185655_0" function="internal">
        <lane id=":1447185655_0_0" index="0" disallow="tram rail_urban rail rail_electric rail_fast ship" speed="3.65" length="4.67" shape="75.67,230.69 75.33,229.29 75.58,228.43 76.42,228.12 77.84,228.35"/>
    </edge>
    <edge id=":1474045672_0" function="internal">
        <lane id=":1474045672_0_0" index="0" allow="pedestrian delivery bicycle" speed="3.65" length="4.67" shape="703.47,159.36 703.90,160.74 703.71,161.61 702.90,161.98 701.46,161.85"/>
    </edge>
    <edge id=":1635318752_0" function="internal">
        <lane id=":1635318752_0_0" index="0" disallow="tram rail_urban rail rail_electric rail_fast ship" speed="3.65" length="4.67" shape="563.53,80.51 564.91,80.09 565.79,80.29 566.15,81.11 566.00,82.54"/>
    </edge>
    <edge id=":1635318767_0" function="internal">
        <lane id=":1635318767_0_0" index="0" disallow="tram rail_urban rail rail_electric rail_fast ship" speed="3.65" length="4.67" shape="267.54,-0.25 268.52,-1.31 269.37,-1.58 270.10,-1.06 270.70,0.25"/>
    </edge>
    <edge id=":1769589022_0" function="internal">
        <lane id=":1769589022_0_0" index="0" disallow="tram rail_urban rail rail_electric rail_fast ship" speed="13.89" length="6.80" shape="125.35,188.40 125.64,190.41 126.63,191.67 127.63,192.94 127.96,194.95"/>
        <lane id=":1769589022_0_1" index="1" disallow="tram rail_urban rail rail_electric rail_fast ship" speed="13.89" length="6.80" shape="125.35,188.40 124.77,194.68"/>
    </edge>
    <edge id=":1769589022_2" function="internal">
        <lane id=":1769589022_2_0" index="0" disallow="tram rail_urban rail rail_electric rail_fast ship" speed="13.89" length="7.38" shape="118.40,194.15 119.06,192.19 120.25,191.11 121.46,190.02 122.16,188.07"/>
    </edge>
    <edge id=":1769589034_0" function="internal">
        <lane id=":1769589034_0_0" index="0" disallow="tram rail_urban rail rail_electric rail_fast ship" speed="13.89" length="7.98" shape="123.29,250.53 122.61,252.68 121.40,253.92 120.19,255.16 119.50,257.31"/>
    </edge>
    <edge id=":1769589034_1" function="internal">
        <lane id=":1769589034_1_0" index="0" disallow="tram rail_urban rail rail_electric rail_fast ship" speed="13.89" length="7.51" shape="116.31,257.03 116.00,254.80 115.02,253.38 114.04,251.95 113.72,249.72"/>
        <lane id=":1769589034_1_1" index="1" disallow="tram rail_urban rail rail_electric rail_fast ship" speed="13.89" length="7.51" shape="116.31,257.03 116.91,249.99"/>
    </edge>
    <edge id=":1769589042_0" function="internal">
        <lane id=":1769589042_0_0" index="0" disallow="tram rail_urban rail rail_electric rail_fast ship" speed="5.39" length="8.17" shape="131.39,187.03 128.95,185.64 127.14,185.37 125.94,186.22 125.37,188.20"/>
    </edge>
    <edge id=":1769589042_1" function="internal">
        <lane id=":1769589042_1_0" index="0" disallow="tram rail_urban rail rail_electric rail_fast ship" speed="8.33" length="20.09" shape="131.39,187.03 127.75,184.31 123.44,180.90 119.19,177.40 115.75,174.43"/>
    </edge>
    <edge id=":1769589042_2" function="internal">
        <lane id=":1769589042_2_0" index="0" disallow="tram rail_urban rail rail_electric rail_fast ship" speed="11.11" length="8.20" shape="131.39,187.03 128.36,183.84 126.51,180.52"/>
    </edge>
    <edge id=":1769589042_3" function="internal">
        <lane id=":1769589042_3_0" index="0" disallow="tram rail_urban rail rail_electric rail_fast ship" speed="3.65" length="2.34" shape="131.39,187.03 130.88,185.68 131.01,184.80"/>
    </edge>
    <edge id=":1769589042_15" function="internal">
        <lane id=":1769589042_15_0" index="0" disallow="tram rail_urban rail rail_electric rail_fast ship" speed="11.11" length="11.28" shape="126.51,180.52 125.86,179.35 124.24,174.36 123.86,169.68"/>
    </edge>
    <edge id=":1769589042_16" function="internal">
        <lane id=":1769589042_16_0" index="0" disallow="tram rail_urban rail rail_electric rail_fast ship" speed="3.65" length="2.34" shape="131.01,184.80 131.80,184.38 133.24,184.42"/>
    </edge>
    <edge id=":1769589042_4" function="internal">
        <lane id=":1769589042_4_0" index="0" disallow="tram rail_urban rail rail_electric rail_fast ship" speed="11.03" length="16.51" shape="127.05,169.95 127.14,174.42 128.20,178.32 130.24,181.65 133.24,184.42"/>
    </edge>
    <edge id=":1769589042_5" function="internal">
        <lane id=":1769589042_5_0" index="0" disallow="tram rail_urban rail rail_electric rail_fast ship" speed="13.89" length="18.32" shape="127.05,169.95 125.37,188.20"/>
    </edge>
    <edge id=":1769589042_6" function="internal">
        <lane id=":1769589042_6_0" index="0" disallow="tram rail_urban rail rail_electric rail_fast ship" speed="7.38" length="7.13" shape="127.05,169.95 125.92,175.34 124.84,176.55"/>
    </edge>
    <edge id=":1769589042_7" function="internal">
        <lane id=":1769589042_7_0" index="0" disallow="tram rail_urban rail rail_electric rail_fast ship" speed="3.65" length="2.34" shape="127.05,169.95 126.15,171.08 125.32,171.41"/>
    </edge>
    <edge id=":1769589042_17" function="internal">
        <lane id=":1769589042_17_0" index="0" disallow="tram rail_urban rail rail_electric rail_fast ship" speed="7.38" length="10.68" shape="124.84,176.55 123.66,177.88 120.27,177.58 115.75,174.43"/>
    </edge>
    <edge id=":1769589042_18" function="internal">
        <lane id=":1769589042_18_0" index="0" disallow="tram rail_urban rail rail_electric rail_fast ship" speed="3.65" length="2.34" shape="125.32,171.41 124.56,170.95 123.86,169.68"/>
    </edge>
    <edge id=":1769589042_8" function="internal">
        <lane id=":1769589042_8_0" index="0" disallow="tram rail_urban rail rail_electric rail_fast ship" speed="5.55" length="9.41" shape="117.89,172.05 120.28,173.72 122.07,173.87 123.26,172.53 123.86,169.68"/>
    </edge>
    <edge id=":1769589042_9" function="internal">
        <lane id=":1769589042_9_0" index="0" disallow="tram rail_urban rail rail_electric rail_fast ship" speed="8.33" length="19.73" shape="117.89,172.05 121.28,174.99 125.43,178.40 129.65,181.74 133.24,184.42"/>
    </edge>
    <edge id=":1769589042_10" function="internal">
        <lane id=":1769589042_10_0" index="0" disallow="tram rail_urban rail rail_electric rail_fast ship" speed="11.11" length="8.47" shape="117.89,172.05 120.89,175.56 122.79,178.92"/>
    </edge>
    <edge id=":1769589042_11" function="internal">
        <lane id=":1769589042_11_0" index="0" disallow="tram rail_urban rail rail_electric rail_fast ship" speed="3.65" length="2.34" shape="117.89,172.05 118.25,173.45 118.01,174.31"/>
    </edge>
    <edge id=":1769589042_19" function="internal">
        <lane id=":1769589042_19_0" index="0" disallow="tram rail_urban rail rail_electric rail_fast ship" speed="11.11" length="9.74" shape="122.79,178.92 123.37,179.92 124.98,184.39 125.37,188.20"/>
    </edge>
    <edge id=":1769589042_20" function="internal">
        <lane id=":1769589042_20_0" index="0" disallow="tram rail_urban rail rail_electric rail_fast ship" speed="3.65" length="2.34" shape="118.01,174.31 117.18,174.64 115.75,174.43"/>
    </edge>
    <edge id=":1769589042_12" function="internal">
        <lane id=":1769589042_12_0" index="0" disallow="tram rail_urban rail rail_electric rail_fast ship" speed="11.11" length="15.46" shape="122.18,187.87 122.05,184.40 120.94,181.01 118.84,177.69 115.75,174.43"/>
    </edge>
    <edge id=":1769589042_13" function="internal">
        <lane id=":1769589042_13_0" index="0" disallow="tram rail_urban rail rail_electric rail_fast ship" speed="13.89" length="18.26" shape="122.18,187.87 123.86,169.68"/>
    </edge>
    <edge id=":1769589042_14" function="internal">
        <lane id=":1769589042_14_0" index="0" disallow="tram rail_urban rail rail_electric rail_fast ship" speed="3.65" length="2.34" shape="122.18,187.87 123.10,186.76 123.94,186.44"/>
    </edge>
    <edge id=":1769589042_21" function="internal">
        <lane id=":1769589042_21_0" index="0" disallow="tram rail_urban rail rail_electric rail_fast ship" speed="3.65" length="2.34" shape="123.94,186.44 124.70,186.92 125.37,188.20"/>
    </edge>
    <edge id=":2045862464_0" function="internal">
        <lane id=":2045862464_0_0" index="0" allow="pedestrian delivery bicycle" speed="3.65" length="4.67" shape="466.06,143.57 465.79,144.98 465.20,145.66 464.31,145.60 463.11,144.81"/>
    </edge>
    <edge id=":2055907447_0" function="internal">
        <lane id=":2055907447_0_0" index="0" disallow="tram rail_urban rail rail_electric rail_fast ship" speed="3.65" length="4.67" shape="-1.06,67.97 -1.43,66.58 -1.19,65.71 -0.36,65.38 1.06,65.58"/>
    </edge>
    <edge id=":26701262_0" function="internal">
        <lane id=":26701262_0_0" index="0" disallow="tram rail_urban rail rail_electric rail_fast ship" speed="8.33" length="14.69" shape="222.07,211.83 207.42,210.63"/>
    </edge>
    <edge id=":26701262_1" function="internal">
        <lane id=":26701262_1_0" index="0" disallow="tram rail_urban rail rail_electric rail_fast ship" speed="7.92" length="14.36" shape="222.07,211.83 218.18,211.07 215.53,209.24 214.11,206.35 213.92,202.40"/>
    </edge>
    <edge id=":26701262_2" function="internal">
        <lane id=":26701262_2_0" index="0" disallow="tram rail_urban rail rail_electric rail_fast ship" speed="3.65" length="4.67" shape="222.07,211.83 220.91,210.97 220.55,210.15 220.99,209.37 222.23,208.63"/>
    </edge>
    <edge id=":26701262_3" function="internal">
        <lane id=":26701262_3_0" index="0" disallow="tram rail_urban rail rail_electric rail_fast ship" speed="6.41" length="9.04" shape="217.10,202.70 217.22,205.19 218.12,207.00 219.79,208.15 222.23,208.63"/>
    </edge>
    <edge id=":26701262_4" function="internal">
        <lane id=":26701262_4_0" index="0" disallow="tram rail_urban rail rail_electric rail_fast ship" speed="7.99" length="14.33" shape="217.10,202.70 216.18,206.54 214.26,209.15 211.34,210.51 207.42,210.63"/>
    </edge>
    <edge id=":26701262_5" function="internal">
        <lane id=":26701262_5_0" index="0" disallow="tram rail_urban rail rail_electric rail_fast ship" speed="3.65" length="4.67" shape="217.10,202.70 216.19,203.82 215.36,204.14 214.60,203.67 213.92,202.40"/>
    </edge>
    <edge id=":26701262_6" function="internal">
        <lane id=":26701262_6_0" index="0" disallow="tram rail_urban rail rail_electric rail_fast ship" speed="6.49" length="9.10" shape="207.78,207.45 210.26,207.37 212.11,206.50 213.33,204.84 213.92,202.40"/>
    </edge>
    <edge id=":26701262_7" function="internal">
        <lane id=":26701262_7_0" index="0" disallow="tram rail_urban rail rail_electric rail_fast ship" speed="8.33" length="14.49" shape="207.78,207.45 222.23,208.63"/>
    </edge>
    <edge id=":26701262_8" function="internal">
        <lane id=":26701262_8_0" index="0" disallow="tram rail_urban rail rail_electric rail_fast ship" speed="3.65" length="4.67" shape="207.78,207.45 208.89,208.38 209.19,209.22 208.71,209.97 207.42,210.63"/>
    </edge>
    <edge id=":26871465_0" function="internal">
        <lane id=":26871465_0_0" index="0" disallow="tram rail_urban rail rail_electric rail_fast ship" speed="3.65" length="4.67" shape="620.82,464.44 620.45,465.83 619.82,466.46 618.93,466.34 617.79,465.46"/>
    </edge>
    <edge id=":27412113_0" function="internal">
        <lane id=":27412113_0_0" index="0" disallow="tram rail_urban rail rail_electric rail_fast ship" speed="6.49" length="9.05" shape="369.78,218.21 369.27,215.78 368.10,214.11 366.27,213.20 363.78,213.03"/>
    </edge>
    <edge id=":27412113_1" function="internal">
        <lane id=":27412113_1_0" index="0" disallow="tram rail_urban rail rail_electric rail_fast ship" speed="8.33" length="14.45" shape="369.78,218.21 368.61,203.81"/>
    </edge>
    <edge id=":27412113_2" function="internal">
        <lane id=":27412113_2_0" index="0" disallow="tram rail_urban rail rail_electric rail_fast ship" speed="8.18" length="5.81" shape="369.78,218.21 370.07,214.32 370.93,212.61"/>
    </edge>
    <edge id=":27412113_3" function="internal">
        <lane id=":27412113_3_0" index="0" disallow="tram rail_urban rail rail_electric rail_fast ship" speed="3.65" length="2.34" shape="369.78,218.21 370.50,216.96 371.27,216.51"/>
    </edge>
    <edge id=":27412113_16" function="internal">
        <lane id=":27412113_16_0" index="0" disallow="tram rail_urban rail rail_electric rail_fast ship" speed="8.18" length="8.52" shape="370.93,212.61 371.53,211.40 374.15,209.45 377.93,208.47"/>
    </edge>
    <edge id=":27412113_17" function="internal">
        <lane id=":27412113_17_0" index="0" disallow="tram rail_urban rail rail_electric rail_fast ship" speed="3.65" length="2.34" shape="371.27,216.51 372.09,216.86 372.97,218.00"/>
    </edge>
    <edge id=":27412113_4" function="internal">
        <lane id=":27412113_4_0" index="0" disallow="tram rail_urban rail rail_electric rail_fast ship" speed="6.72" length="9.35" shape="378.29,211.65 375.83,212.29 374.12,213.56 373.16,215.47 372.97,218.00"/>
    </edge>
    <edge id=":27412113_5" function="internal">
        <lane id=":27412113_5_0" index="0" disallow="tram rail_urban rail rail_electric rail_fast ship" speed="8.33" length="14.57" shape="378.29,211.65 363.78,213.03"/>
    </edge>
    <edge id=":27412113_6" function="internal">
        <lane id=":27412113_6_0" index="0" disallow="tram rail_urban rail rail_electric rail_fast ship" speed="7.97" length="14.27" shape="378.29,211.65 374.38,211.54 371.46,210.19 369.54,207.62 368.61,203.81"/>
    </edge>
    <edge id=":27412113_7" function="internal">
        <lane id=":27412113_7_0" index="0" disallow="tram rail_urban rail rail_electric rail_fast ship" speed="3.65" length="4.67" shape="378.29,211.65 377.01,210.99 376.52,210.24 376.83,209.40 377.93,208.47"/>
    </edge>
    <edge id=":27412113_8" function="internal">
        <lane id=":27412113_8_0" index="0" disallow="tram rail_urban rail rail_electric rail_fast ship" speed="6.47" length="9.04" shape="371.79,203.49 372.38,205.91 373.60,207.55 375.45,208.40 377.93,208.47"/>
    </edge>
    <edge id=":27412113_9" function="internal">
        <lane id=":27412113_9_0" index="0" disallow="tram rail_urban rail rail_electric rail_fast ship" speed="8.33" length="14.55" shape="371.79,203.49 372.97,218.00"/>
    </edge>
    <edge id=":27412113_10" function="internal">
        <lane id=":27412113_10_0" index="0" disallow="tram rail_urban rail rail_electric rail_fast ship" speed="7.97" length="6.11" shape="371.79,203.49 371.62,207.41 370.67,209.39"/>
    </edge>
    <edge id=":27412113_11" function="internal">
        <lane id=":27412113_11_0" index="0" disallow="tram rail_urban rail rail_electric rail_fast ship" speed="3.65" length="2.34" shape="371.79,203.49 371.11,204.77 370.36,205.24"/>
    </edge>
    <edge id=":27412113_18" function="internal">
        <lane id=":27412113_18_0" index="0" disallow="tram rail_urban rail rail_electric rail_fast ship" speed="7.97" length="8.16" shape="370.67,209.39 370.22,210.31 367.61,212.18 363.78,213.03"/>
    </edge>
    <edge id=":27412113_19" function="internal">
        <lane id=":27412113_19_0" index="0" disallow="tram rail_urban rail rail_electric rail_fast ship" speed="3.65" length="2.34" shape="370.36,205.24 369.52,204.92 368.61,203.81"/>
    </edge>
    <edge id=":27412113_12" function="internal">
        <lane id=":27412113_12_0" index="0" disallow="tram rail_urban rail rail_electric rail_fast ship" speed="6.46" length="9.03" shape="363.54,209.84 365.96,209.30 367.61,208.12 368.50,206.28 368.61,203.81"/>
    </edge>
    <edge id=":27412113_13" function="internal">
        <lane id=":27412113_13_0" index="0" disallow="tram rail_urban rail rail_electric rail_fast ship" speed="8.33" length="14.46" shape="363.54,209.84 377.93,208.47"/>
    </edge>
    <edge id=":27412113_14" function="internal">
        <lane id=":27412113_14_0" index="0" disallow="tram rail_urban rail rail_electric rail_fast ship" speed="7.99" length="14.26" shape="363.54,209.84 367.45,210.10 370.33,211.54 372.17,214.18 372.97,218.00"/>
    </edge>
    <edge id=":27412113_15" function="internal">
        <lane id=":27412113_15_0" index="0" disallow="tram rail_urban rail rail_electric rail_fast ship" speed="3.65" length="4.67" shape="363.54,209.84 364.80,210.55 365.26,211.32 364.92,212.14 363.78,213.03"/>
    </edge>
    <edge id=":29192284_0" function="internal">
        <lane id=":29192284_0_0" index="0" disallow="tram rail_urban rail rail_electric rail_fast ship" speed="3.65" length="4.67" shape="439.58,463.78 439.22,465.18 438.59,465.82 437.70,465.71 436.55,464.84"/>
    </edge>
    <edge id=":29192951_0" function="internal">
        <lane id=":29192951_0_0" index="0" disallow="tram rail_urban rail rail_electric rail_fast ship" speed="8.33" length="4.70" shape="492.56,173.08 491.69,174.16 491.06,174.89 490.37,175.55 489.32,176.45"/>
    </edge>
    <edge id=":29192951_1" function="internal">
        <lane id=":29192951_1_0" index="0" disallow="tram rail_urban rail rail_electric rail_fast ship" speed="3.65" length="2.34" shape="492.56,173.08 491.18,173.51 490.31,173.31"/>
    </edge>
    <edge id=":29192951_4" function="internal">
        <lane id=":29192951_4_0" index="0" disallow="tram rail_urban rail rail_electric rail_fast ship" speed="3.65" length="2.34" shape="490.31,173.31 489.94,172.50 490.08,171.06"/>
    </edge>
    <edge id=":29192951_2" function="internal">
        <lane id=":29192951_2_0" index="0" disallow="tram rail_urban rail rail_electric rail_fast ship" speed="8.33" length="4.08" shape="487.26,174.00 488.18,173.21 488.77,172.63 489.32,172.00 490.08,171.06"/>
    </edge>
    <edge id=":29192951_3" function="internal">
        <lane id=":29192951_3_0" index="0" disallow="tram rail_urban rail rail_electric rail_fast ship" speed="3.65" length="2.34" shape="487.26,174.00 488.70,173.84 489.52,174.20"/>
    </edge>
    <edge id=":29192951_5" function="internal">
        <lane id=":29192951_5_0" index="0" disallow="tram rail_urban rail rail_electric rail_fast ship" speed="3.65" length="2.34" shape="489.52,174.20 489.72,175.07 489.32,176.45"/>
    </edge>
    <edge id=":3463843610_0" function="internal">
        <lane id=":3463843610_0_0" index="0" disallow="tram rail_urban rail rail_electric rail_fast ship" speed="11.11" length="0.76" shape="373.20,282.83 373.16,282.61 373.13,282.46 373.12,282.30 373.10,282.08"/>
    </edge>
    <edge id=":3463843610_1" function="internal">
        <lane id=":3463843610_1_0" index="0" disallow="tram rail_urban rail rail_electric rail_fast ship" speed="11.11" length="0.25" shape="376.30,281.91 376.30,281.99 376.31,282.04 376.32,282.09 376.33,282.16"/>
    </edge>
    <edge id=":3463843613_0" function="internal">
        <lane id=":3463843613_0_0" index="0" disallow="tram rail_urban rail rail_electric rail_fast ship" speed="13.89" length="9.49" shape="375.76,295.07 373.83,285.78"/>
    </edge>
    <edge id=":3463843613_1" function="internal">
        <lane id=":3463843613_1_0" index="0" disallow="tram rail_urban rail rail_electric rail_fast ship" speed="3.65" length="2.34" shape="375.76,295.07 376.32,293.74 377.03,293.19"/>
    </edge>
    <edge id=":3463843613_4" function="internal">
        <lane id=":3463843613_4_0" index="0" disallow="tram rail_urban rail rail_electric rail_fast ship" speed="3.65" length="2.34" shape="377.03,293.19 377.89,293.44 378.90,294.46"/>
    </edge>
    <edge id=":3463843613_2" function="internal">
        <lane id=":3463843613_2_0" index="0" disallow="tram rail_urban rail rail_electric rail_fast ship" speed="13.89" length="9.55" shape="376.96,285.11 378.90,294.46"/>
    </edge>
    <edge id=":3463843613_3" function="internal">
        <lane id=":3463843613_3_0" index="0" disallow="tram rail_urban rail rail_electric rail_fast ship" speed="3.65" length="2.34" shape="376.96,285.11 376.43,286.45 375.73,287.01"/>
    </edge>
    <edge id=":3463843613_5" function="internal">
        <lane id=":3463843613_5_0" index="0" disallow="tram rail_urban rail rail_electric rail_fast ship" speed="3.65" length="2.34" shape="375.73,287.01 374.86,286.78 373.83,285.78"/>
    </edge>
    <edge id=":357990115_0" function="internal">
        <lane id=":357990115_0_0" index="0" disallow="tram rail_urban rail rail_electric rail_fast ship" speed="8.33" length="4.95" shape="551.19,283.63 549.63,278.93"/>
    </edge>
    <edge id=":357990115_1" function="internal">
        <lane id=":357990115_1_0" index="0" disallow="tram rail_urban rail rail_electric rail_fast ship" speed="3.65" length="2.34" shape="551.19,283.63 551.58,282.24 552.22,281.61"/>
    </edge>
    <edge id=":357990115_4" function="internal">
        <lane id=":357990115_4_0" index="0" disallow="tram rail_urban rail rail_electric rail_fast ship" speed="3.65" length="2.34" shape="552.22,281.61 553.10,281.74 554.23,282.63"/>
    </edge>
    <edge id=":357990115_2" function="internal">
        <lane id=":357990115_2_0" index="0" disallow="tram rail_urban rail rail_electric rail_fast ship" speed="8.33" length="4.99" shape="552.66,277.90 554.23,282.63"/>
    </edge>
    <edge id=":357990115_3" function="internal">
        <lane id=":357990115_3_0" index="0" disallow="tram rail_urban rail rail_electric rail_fast ship" speed="3.65" length="2.34" shape="552.66,277.90 552.29,279.29 551.66,279.93"/>
    </edge>
    <edge id=":357990115_5" function="internal">
        <lane id=":357990115_5_0" index="0" disallow="tram rail_urban rail rail_electric rail_fast ship" speed="3.65" length="2.34" shape="551.66,279.93 550.77,279.81 549.63,278.93"/>
    </edge>
    <edge id=":3694975821_0" function="internal">
        <lane id=":3694975821_0_0" index="0" allow="pedestrian delivery bicycle" speed="3.65" length="4.67" shape="307.09,111.01 305.98,110.09 305.66,109.26 306.13,108.50 307.41,107.82"/>
    </edge>
    <edge id=":3694980244_0" function="internal">
        <lane id=":3694980244_0_0" index="0" disallow="tram rail_urban rail rail_electric rail_fast ship" speed="8.33" length="9.60" shape="305.45,215.18 295.85,215.05"/>
    </edge>
    <edge id=":3694980244_1" function="internal">
        <lane id=":3694980244_1_0" index="0" allow="pedestrian delivery bicycle" speed="6.78" length="5.34" shape="305.45,215.18 302.51,214.77 300.50,213.50"/>
    </edge>
    <edge id=":3694980244_2" function="internal">
        <lane id=":3694980244_2_0" index="0" disallow="tram rail_urban rail rail_electric rail_fast ship" speed="3.65" length="2.34" shape="305.45,215.18 304.24,214.38 303.84,213.58"/>
    </edge>
    <edge id=":3694980244_9" function="internal">
        <lane id=":3694980244_9_0" index="0" allow="pedestrian delivery bicycle" speed="6.78" length="5.34" shape="300.50,213.50 299.43,211.39 299.29,208.42"/>
    </edge>
    <edge id=":3694980244_10" function="internal">
        <lane id=":3694980244_10_0" index="0" disallow="tram rail_urban rail rail_electric rail_fast ship" speed="3.65" length="2.34" shape="303.84,213.58 304.24,212.78 305.43,211.98"/>
    </edge>
    <edge id=":3694980244_3" function="internal">
        <lane id=":3694980244_3_0" index="0" allow="pedestrian delivery bicycle" speed="4.94" length="5.13" shape="302.48,208.74 302.54,210.16 303.06,211.17 304.02,211.78 305.43,211.98"/>
    </edge>
    <edge id=":3694980244_4" function="internal">