<?xml version="1.0" encoding="UTF-8"?>

<!-- generated on 04/17/20 01:46:37 by Eclipse SUMO duarouter Version 1.5.0
<configuration xmlns:xsi="http://www.w3.org/2001/XMLSchema-instance" xsi:noNamespaceSchemaLocation="http://sumo.dlr.de/xsd/duarouterConfiguration.xsd">

    <input>
        <net-file value="C:\Users\v2262\Sumo\2020-04-17-01-46-29\osm.net.xml"/>
        <route-files value="C:\Users\v2262\Sumo\2020-04-17-01-46-29\osm.passenger.trips.xml"/>
    </input>

    <output>
        <output-file value="C:\Users\v2262\Sumo\2020-04-17-01-46-29\osm.passenger.trips.xml.tmp"/>
        <write-trips value="true"/>
    </output>

    <time>
        <begin value="0"/>
        <end value="3600.0"/>
    </time>

    <report>
        <no-warnings value="true"/>
        <ignore-errors value="true"/>
        <no-step-log value="true"/>
    </report>

</configuration>
-->

<routes xmlns:xsi="http://www.w3.org/2001/XMLSchema-instance" xsi:noNamespaceSchemaLocation="http://sumo.dlr.de/xsd/routes_file.xsd">
    <vType id="veh_passenger" vClass="passenger"/>
    <trip id="veh1" type="veh_passenger" depart="16.79" departLane="best" from="-541295974" to="-195397541"/>
    <trip id="veh2" type="veh_passenger" depart="33.58" departLane="best" departSpeed="max" from="-34848160" to="24243107#0"/>
    <trip id="veh4" type="veh_passenger" depart="67.15" departLane="best" from="4610472#0" to="34848160"/>
    <trip id="veh5" type="veh_passenger" depart="83.94" departLane="best" departSpeed="max" from="195397561#0" to="541295974"/>
    <trip id="veh6" type="veh_passenger" depart="100.73" departLane="best" departSpeed="max" from="389705415#0" to="-195397541"/>
    <trip id="veh7" type="veh_passenger" depart="117.51" departLane="best" from="-24243101" to="-465376254"/>
    <trip id="veh8" type="veh_passenger" depart="134.30" departLane="best" departSpeed="max" from="-24243107#1" to="34848160"/>
    <trip id="veh9" type="veh_passenger" depart="151.09" departLane="best" departSpeed="max" from="-24243107#1" to="-6228081"/>
    <trip id="veh10" type="veh_passenger" depart="167.88" departLane="best" departSpeed="max" from="195397561#0" to="30720544#1"/>
    <trip id="veh11" type="veh_passenger" depart="184.66" departLane="best" departSpeed="max" from="-34848160" to="-195397541"/>
    <trip id="veh14" type="veh_passenger" depart="235.03" departLane="best" departSpeed="max" from="389705415#0" to="137630045"/>
    <trip id="veh16" type="veh_passenger" depart="268.60" departLane="best" from="6228081" to="24243107#1"/>
    <trip id="veh17" type="veh_passenger" depart="285.39" departLane="best" from="-222328410" to="-195397541"/>
    <trip id="veh18" type="veh_passenger" depart="302.18" departLane="best" from="6228081" to="24243107#1"/>
    <trip id="veh19" type="veh_passenger" depart="318.97" departLane="best" from="541295974" to="492340367"/>
    <trip id="veh20" type="veh_passenger" depart="335.75" departLane="best" from="-137630045" to="34848160"/>
    <trip id="veh21" type="veh_passenger" depart="352.54" departLane="best" departSpeed="max" from="389705415#0" to="24243107#1"/>
    <trip id="veh22" type="veh_passenger" depart="369.33" departLane="best" from="-24243107#0" to="153698390#1"/>
    <trip id="veh25" type="veh_passenger" depart="419.69" departLane="best" departSpeed="max" from="-492340367" to="30720544#1"/>
    <trip id="veh26" type="veh_passenger" depart="436.48" departLane="best" departSpeed="max" from="389705415#0" to="24243107#1"/>
    <trip id="veh27" type="veh_passenger" depart="453.27" departLane="best" from="389705415#1" to="24243107#1"/>
    <trip id="veh31" type="veh_passenger" depart="520.42" departLane="best" departSpeed="max" from="389705415#0" to="-195397561#0"/>
    <trip id="veh32" type="veh_passenger" depart="537.21" departLane="best" departSpeed="max" from="195397541" to="24243107#1"/>
    <trip id="veh34" type="veh_passenger" depart="570.78" departLane="best" from="-6228081" to="24243107#1"/>
    <trip id="veh35" type="veh_passenger" depart="587.57" departLane="best" departSpeed="max" from="-492340367" to="30720544#0"/>
    <trip id="veh36" type="veh_passenger" depart="604.36" departLane="best" departSpeed="max" from="-34848160" to="-4610472#1"/>
    <trip id="veh38" type="veh_passenger" depart="637.93" departLane="best" departSpeed="max" from="465376254" to="-195397541"/>
    <trip id="veh39" type="veh_passenger" depart="654.72" departLane="best" departSpeed="max" from="-34848160" to="30720544#1"/>
    <trip id="veh43" type="veh_passenger" depart="721.87" departLane="best" departSpeed="max" from="195397561#0" to="-195397541"/>
    <trip id="veh48" type="veh_passenger" depart="805.81" departLane="best" departSpeed="max" from="-34848160" to="137630045"/>
    <trip id="veh50" type="veh_passenger" depart="839.39" departLane="best" departSpeed="max" from="-492340367" to="34848160"/>
    <trip id="veh55" type="veh_passenger" depart="923.32" departLane="best" departSpeed="max" from="-24243107#1" to="-195397561#0"/>
    <trip id="veh56" type="veh_passenger" depart="940.11" departLane="best" departSpeed="max" from="389705415#0" to="-4610472#0"/>
    <trip id="veh57" type="veh_passenger" depart="956.90" departLane="best" from="-137630045" to="34848160"/>
    <trip id="veh58" type="veh_passenger" depart="973.69" departLane="best" departSpeed="max" from="389705415#0" to="24243107#1"/>
    <trip id="veh59" type="veh_passenger" depart="990.48" departLane="best" from="-541295974" to="-137630045"/>
    <trip id="veh60" type="veh_passenger" depart="1007.26" departLane="best" departSpeed="max" from="-24243107#1" to="-195397561#0"/>
    <trip id="veh61" type="veh_passenger" depart="1024.05" departLane="best" from="389705415#1" to="492340367"/>
    <trip id="veh62" type="veh_passenger" depart="1040.84" departLane="best" from="389705415#1" to="492340367"/>
    <trip id="veh64" type="veh_passenger" depart="1074.41" departLane="best" from="389705415#1" to="492340367"/>
    <trip id="veh65" type="veh_passenger" depart="1091.20" departLane="best" from="389705415#1" to="-195397561#0"/>
    <trip id="veh67" type="veh_passenger" depart="1124.78" departLane="best" departSpeed="max" from="-153698390#1" to="-339201185"/>
    <trip id="veh68" type="veh_passenger" depart="1141.57" departLane="best" from="6228081" to="24243107#1"/>
    <trip id="veh71" type="veh_passenger" depart="1191.93" departLane="best" from="-24243101" to="153698390#1"/>
    <trip id="veh73" type="veh_passenger" depart="1225.50" departLane="best" from="222328410" to="24243107#1"/>
    <trip id="veh75" type="veh_passenger" depart="1259.08" departLane="best" departSpeed="max" from="-34848160" to="30720544#1"/>
    <trip id="veh78" type="veh_passenger" depart="1309.44" departLane="best" departSpeed="max" from="-492340367" to="153698390#1"/>
    <trip id="veh80" type="veh_passenger" depart="1343.02" departLane="best" departSpeed="max" from="-24243107#1" to="153698390#1"/>
    <trip id="veh83" type="veh_passenger" depart="1393.38" departLane="best" departSpeed="max" from="-492340367" to="24243107#1"/>
    <trip id="veh84" type="veh_passenger" depart="1410.17" departLane="best" from="-195397561#2" to="24243107#1"/>
    <trip id="veh86" type="veh_passenger" depart="1443.74" departLane="best" from="4610472#1" to="34848160"/>
    <trip id="veh87" type="veh_passenger" depart="1460.53" departLane="best" departSpeed="max" from="-34848160" to="-195397541"/>
    <trip id="veh88" type="veh_passenger" depart="1477.32" departLane="best" departSpeed="max" from="465376254" to="-195397541"/>
    <trip id="veh90" type="veh_passenger" depart="1510.90" departLane="best" departSpeed="max" from="195397541" to="-465376254"/>
    <trip id="veh91" type="veh_passenger" depart="1527.68" departLane="best" departSpeed="max" from="389705415#0" to="-137630045"/>
    <trip id="veh92" type="veh_passenger" depart="1544.47" departLane="best" departSpeed="max" from="389705415#0" to="34848160"/>
    <trip id="veh93" type="veh_passenger" depart="1561.26" departLane="best" from="-24243101" to="153698390#1"/>
    <trip id="veh94" type="veh_passenger" depart="1578.05" departLane="best" departSpeed="max" from="-34848160" to="492340367"/>
    <trip id="veh96" type="veh_passenger" depart="1611.62" departLane="best" from="4610472#2" to="24243107#1"/>
    <trip id="veh97" type="veh_passenger" depart="1628.41" departLane="best" departSpeed="max" from="195397541" to="-465376254"/>
    <trip id="veh98" type="veh_passenger" depart="1645.20" departLane="best" departSpeed="max" from="-34848160" to="30720544#1"/>
    <trip id="veh99" type="veh_passenger" depart="1661.98" departLane="best" departSpeed="max" from="389705415#0" to="24243107#1"/>
    <trip id="veh100" type="veh_passenger" depart="1678.77" departLane="best" from="24243107#0" to="-465376254"/>
    <trip id="veh102" type="veh_passenger" depart="1712.35" departLane="best" departSpeed="max" from="-34848160" to="30720544#1"/>
    <trip id="veh103" type="veh_passenger" depart="1729.14" departLane="best" departSpeed="max" from="389705415#0" to="-195397541"/>
    <trip id="veh105" type="veh_passenger" depart="1762.71" departLane="best" departSpeed="max" from="195397561#0" to="30720544#1"/>
    <trip id="veh106" type="veh_passenger" depart="1779.50" departLane="best" departSpeed="max" from="-492340367" to="34848160"/>
    <trip id="veh109" type="veh_passenger" depart="1829.86" departLane="best" departSpeed="max" from="195397561#0" to="30720544#1"/>
    <trip id="veh110" type="veh_passenger" depart="1846.65" departLane="best" departSpeed="max" from="-34848160" to="-4610472#1"/>
    <trip id="veh111" type="veh_passenger" depart="1863.44" departLane="best" from="-6228081" to="-195397541"/>
    <trip id="veh112" type="veh_passenger" depart="1880.23" departLane="best" departSpeed="max" from="-492340367" to="30720544#1"/>
    <trip id="veh113" type="veh_passenger" depart="1897.01" departLane="best" departSpeed="max" from="-24243107#1" to="153698390#1"/>
    <trip id="veh115" type="veh_passenger" depart="1930.59" departLane="best" departSpeed="max" from="-153698390#1" to="24243107#1"/>
    <trip id="veh118" type="veh_passenger" depart="1980.95" departLane="best" departSpeed="max" from="-24243107#1" to="30720544#1"/>
    <trip id="veh119" type="veh_passenger" depart="1997.74" departLane="best" departSpeed="max" from="389705415#0" to="34848160"/>
    <trip id="veh120" type="veh_passenger" depart="2014.53" departLane="best" departSpeed="max" from="-24243107#1" to="30720544#1"/>
    <trip id="veh121" type="veh_passenger" depart="2031.31" departLane="best" departSpeed="max" from="389705415#0" to="-195397561#0"/>
    <trip id="veh122" type="veh_passenger" depart="2048.10" departLane="best" departSpeed="max" from="-492340367" to="30720544#1"/>
    <trip id="veh124" type="veh_passenger" depart="2081.68" departLane="best" departSpeed="max" from="389705415#0" to="-195397561#0"/>
    <trip id="veh125" type="veh_passenger" depart="2098.47" departLane="best" from="-24243101" to="34848160"/>
    <trip id="veh128" type="veh_passenger" depart="2148.83" departLane="best" from="137630045" to="30720544#1"/>
    <trip id="veh129" type="veh_passenger" depart="2165.62" departLane="best" departSpeed="max" from="465376254" to="-24243107#0"/>
    <trip id="veh130" type="veh_passenger" depart="2182.40" departLane="best" departSpeed="max" from="195397541" to="34848160"/>
    <trip id="veh134" type="veh_passenger" depart="2249.56" departLane="best" departSpeed="max" from="195397541" to="34848160"/>
    <trip id="veh135" type="veh_passenger" depart="2266.34" departLane="best" from="6228081" to="24243107#1"/>
    <trip id="veh136" type="veh_passenger" depart="2283.13" departLane="best" departSpeed="max" from="-24243107#1" to="-195397541"/>
    <trip id="veh137" type="veh_passenger" depart="2299.92" departLane="best" from="541295974" to="24243107#1"/>
    <trip id="veh138" type="veh_passenger" depart="2316.71" departLane="best" departSpeed="max" from="389705415#0" to="-195397561#0"/>
    <trip id="veh139" type="veh_passenger" depart="2333.49" departLane="best" departSpeed="max" from="195397541" to="153698390#1"/>
    <trip id="veh140" type="veh_passenger" depart="2350.28" departLane="best" departSpeed="max" from="-24243107#1" to="-195397541"/>
    <trip id="veh143" type="veh_passenger" depart="2400.64" departLane="best" departSpeed="max" from="195397541" to="153698390#1"/>
    <trip id="veh146" type="veh_passenger" depart="2451.01" departLane="best" departSpeed="max" from="-34848160" to="-4610472#1"/>
    <trip id="veh147" type="veh_passenger" depart="2467.80" departLane="best" departSpeed="max" from="-24243107#1" to="-195397561#0"/>
    <trip id="veh148" type="veh_passenger" depart="2484.58" departLane="best" departSpeed="max" from="-34848160" to="30720544#1"/>
    <trip id="veh151" type="veh_passenger" depart="2534.95" departLane="best" from="-541295974" to="24243107#1"/>
    <trip id="veh153" type="veh_passenger" depart="2568.52" departLane="best" departSpeed="max" from="195397541" to="-195397561#0"/>
    <trip id="veh156" type="veh_passenger" depart="2618.89" departLane="best" departSpeed="max" from="195397541" to="30720544#1"/>
    <trip id="veh158" type="veh_passenger" depart="2652.46" departLane="best" departSpeed="max" from="195397561#0" to="30720544#1"/>
    <trip id="veh159" type="veh_passenger" depart="2669.25" departLane="best" departSpeed="max" from="195397541" to="-195397561#0"/>
    <trip id="veh161" type="veh_passenger" depart="2702.82" departLane="best" departSpeed="max" from="389705415#0" to="492340367"/>
    <trip id="veh162" type="veh_passenger" depart="2719.61" departLane="best" departSpeed="max" from="-492340367" to="30720544#1"/>
    <trip id="veh165" type="veh_passenger" depart="2769.97" departLane="best" departSpeed="max" from="-492340367" to="541295974"/>
    <trip id="veh166" type="veh_passenger" depart="2786.76" departLane="best" departSpeed="max" from="389705415#0" to="-4610472#0"/>
    <trip id="veh169" type="veh_passenger" depart="2837.13" departLane="best" departSpeed="max" from="389705415#0" to="24243107#1"/>
    <trip id="veh170" type="veh_passenger" depart="2853.91" departLane="best" departSpeed="max" from="195397541" to="4610472#1"/>
    <trip id="veh172" type="veh_passenger" depart="2887.49" departLane="best" departSpeed="max" from="195397541" to="-222328410"/>
    <trip id="veh174" type="veh_passenger" depart="2921.06" departLane="best" departSpeed="max" from="195397561#0" to="24243107#1"/>
    <trip id="veh176" type="veh_passenger" depart="2954.64" departLane="best" departSpeed="max" from="389705415#0" to="-195397541"/>
    <trip id="veh177" type="veh_passenger" depart="2971.43" departLane="best" departSpeed="max" from="-153698390#1" to="24243107#0"/>
    <trip id="veh178" type="veh_passenger" depart="2988.22" departLane="best" departSpeed="max" from="195397541" to="153698390#1"/>
    <trip id="veh179" type="veh_passenger" depart="3005.00" departLane="best" departSpeed="max" from="195397541" to="541295974"/>
    <trip id="veh180" type="veh_passenger" depart="3021.79" departLane="best" departSpeed="max" from="-492340367" to="30720544#1"/>
    <trip id="veh182" type="veh_passenger" depart="3055.37" departLane="best" departSpeed="max" from="389705415#0" to="34848160"/>
    <trip id="veh183" type="veh_passenger" depart="3072.15" departLane="best" departSpeed="max" from="465376254" to="-195397541"/>
    <trip id="veh187" type="veh_passenger" depart="3139.30" departLane="best" departSpeed="max" from="-24243107#1" to="-195397561#0"/>
    <trip id="veh189" type="veh_passenger" depart="3172.88" departLane="best" departSpeed="max" from="-24243107#1" to="153698390#1"/>
    <trip id="veh190" type="veh_passenger" depart="3189.67" departLane="best" departSpeed="max" from="-24243107#1" to="153698390#1"/>
    <trip id="veh191" type="veh_passenger" depart="3206.46" departLane="best" departSpeed="max" from="-492340367" to="30720544#0"/>
    <trip id="veh192" type="veh_passenger" depart="3223.24" departLane="best" departSpeed="max" from="-34848160" to="492340367"/>
    <trip id="veh193" type="veh_passenger" depart="3240.03" departLane="best" departSpeed="max" from="195397541" to="-465376254"/>
    <trip id="veh194" type="veh_passenger" depart="3256.82" departLane="best" departSpeed="max" from="195397561#0" to="30720544#0"/>
    <trip id="veh195" type="veh_passenger" depart="3273.61" departLane="best" from="-4610472#1" to="24243107#1"/>
    <trip id="veh196" type="veh_passenger" depart="3290.39" departLane="best" departSpeed="max" from="389705415#0" to="34848160"/>
    <trip id="veh198" type="veh_passenger" depart="3323.97" departLane="best" departSpeed="max" from="389705415#0" to="34848160"/>
    <trip id="veh200" type="veh_passenger" depart="3357.54" departLane="best" departSpeed="max" from="389705415#0" to="-195397561#0"/>
    <trip id="veh201" type="veh_passenger" depart="3374.33" departLane="best" departSpeed="max" from="-24243107#1" to="-195397561#0"/>
    <trip id="veh202" type="veh_passenger" depart="3391.12" departLane="best" departSpeed="max" from="195397561#0" to="541295974"/>
    <trip id="veh203" type="veh_passenger" depart="3407.91" departLane="best" from="4610472#0" to="34848160"/>
    <trip id="veh205" type="veh_passenger" depart="3441.48" departLane="best" from="541295974" to="492340367"/>
    <trip id="veh207" type="veh_passenger" depart="3475.06" departLane="best" departSpeed="max" from="-153698390#1" to="24243107#1"/>
    <trip id="veh208" type="veh_passenger" depart="3491.85" departLane="best" departSpeed="max" from="-153698390#1" to="492340367"/>
    <trip id="veh210" type="veh_passenger" depart="3525.42" departLane="best" departSpeed="max" from="-34848160" to="-195397541"/>
    <trip id="veh211" type="veh_passenger" depart="3542.21" departLane="best" departSpeed="max" from="-492340367" to="153698390#1"/>
    <trip id="veh212" type="veh_passenger" depart="3559.00" departLane="best" departSpeed="max" from="-24243107#1" to="153698390#1"/>
    <trip id="veh213" type="veh_passenger" depart="3575.79" departLane="best" departSpeed="max" from="389705415#0" to="34848160"/>
</routes>
