<additional>
    <inductionLoop id="0" lane="34848160_0" pos="0" freq="900" file="test.out.xml"/>
</additional>